<?xml version="1.0" encoding="UTF-8"?>

<!-- generated on 2024-07-01 13:07:14.303612 by osmWebWizard.py v1_19_0+0000-baa66a0f364
<configuration>
    <net-file value="C:\Users\Jaime\Sumo\2024-07-01-13-06-59\osm.net.xml.gz"/>
    <output-trip-file value="C:\Users\Jaime\Sumo\2024-07-01-13-06-59\osm.passenger.trips.xml"/>
    <route-file value="C:\Users\Jaime\Sumo\2024-07-01-13-06-59\osm.passenger.rou.xml"/>
    <prefix value="veh"/>
    <trip-attributes value="departLane=&quot;best&quot;"/>
    <fringe-start-attributes value="departSpeed=&quot;max&quot;"/>
    <vehicle-class value="passenger"/>
    <lanes value="True"/>
    <fringe-factor value="5"/>
    <allow-fringe.min-length value="1000.0"/>
    <via-edge-types value="highway.motorway,highway.motorway_link,highway.trunk_link,highway.primary_link,highway.secondary_link,highway.tertiary_link"/>
    <min-distance value="300.0"/>
    <min-distance.fringe value="10.0"/>
    <remove-loops value="True"/>
    <validate value="True"/>
    <end value="4000.0"/>
    <insertion-density value="12.0"/>
</configuration>
-->

<!-- generated on 2024-07-01 13:07:13 by Eclipse SUMO duarouter Version 1.19.0
<configuration xmlns:xsi="http://www.w3.org/2001/XMLSchema-instance" xsi:noNamespaceSchemaLocation="http://sumo.dlr.de/xsd/duarouterConfiguration.xsd">

    <input>
        <net-file value="C:\Users\Jaime\Sumo\2024-07-01-13-06-59\osm.net.xml.gz"/>
        <route-files value="C:\Users\Jaime\Sumo\2024-07-01-13-06-59\osm.passenger.trips.xml"/>
    </input>

    <output>
        <output-file value="C:\Users\Jaime\Sumo\2024-07-01-13-06-59\osm.passenger.trips.xml.tmp"/>
        <alternatives-output value="NUL"/>
        <write-trips value="true"/>
    </output>

    <processing>
        <remove-loops value="true"/>
    </processing>

    <time>
        <begin value="0.0"/>
        <end value="4000.0"/>
    </time>

    <report>
        <no-warnings value="true"/>
        <ignore-errors value="true"/>
        <no-step-log value="true"/>
    </report>

</configuration>
-->

<routes xmlns:xsi="http://www.w3.org/2001/XMLSchema-instance" xsi:noNamespaceSchemaLocation="http://sumo.dlr.de/xsd/routes_file.xsd">
    <vType id="veh_passenger" vClass="passenger"/>
    <trip id="veh0" type="veh_passenger" depart="0.00" departLane="best" from="52361607#0" to="-810730426#0"/>
    <trip id="veh1" type="veh_passenger" depart="3.34" departLane="best" from="154012610#0" to="1291522983#1"/>
    <trip id="veh2" type="veh_passenger" depart="6.68" departLane="best" from="6277186#2" to="52372533#0"/>
    <trip id="veh3" type="veh_passenger" depart="10.01" departLane="best" from="814874475#1" to="1132294365#0"/>
    <trip id="veh4" type="veh_passenger" depart="13.35" departLane="best" from="41397536" to="-965741022#1"/>
    <trip id="veh5" type="veh_passenger" depart="16.69" departLane="best" from="13470119#5" to="4795048#1"/>
    <trip id="veh6" type="veh_passenger" depart="20.03" departLane="best" from="94124274#0" to="12403434#0"/>
    <trip id="veh7" type="veh_passenger" depart="23.37" departLane="best" from="13470119#8" to="5073111#1"/>
    <trip id="veh8" type="veh_passenger" depart="26.71" departLane="best" from="7666189#0" to="-191144570#0"/>
    <trip id="veh9" type="veh_passenger" depart="30.04" departLane="best" from="7666174#1" to="61044478#0"/>
    <trip id="veh10" type="veh_passenger" depart="33.38" departLane="best" from="217952211#0" to="1199528238"/>
    <trip id="veh11" type="veh_passenger" depart="36.72" departLane="best" departSpeed="max" from="97020726#0" to="191715082#6"/>
    <trip id="veh12" type="veh_passenger" depart="40.06" departLane="best" from="800130448#3" to="5098774#0"/>
    <trip id="veh13" type="veh_passenger" depart="43.40" departLane="best" from="7666175#1" to="61720123"/>
    <trip id="veh14" type="veh_passenger" depart="46.74" departLane="best" from="4890116#2" to="98711537#1"/>
    <trip id="veh15" type="veh_passenger" depart="50.07" departLane="best" from="289656995#2" to="4890124#0"/>
    <trip id="veh16" type="veh_passenger" depart="53.41" departLane="best" from="770904172" to="5136735#0"/>
    <trip id="veh17" type="veh_passenger" depart="56.75" departLane="best" from="8099705#3" to="5011435"/>
    <trip id="veh18" type="veh_passenger" depart="60.09" departLane="best" from="61720119#1" to="1027474076#1"/>
    <trip id="veh19" type="veh_passenger" depart="63.43" departLane="best" from="13470134#3" to="16360341"/>
    <trip id="veh20" type="veh_passenger" depart="66.77" departLane="best" from="1132294362#1" to="13470119#6"/>
    <trip id="veh21" type="veh_passenger" depart="70.10" departLane="best" from="733392251" to="13859952#2"/>
    <trip id="veh22" type="veh_passenger" depart="73.44" departLane="best" from="52361603" to="213141909#5"/>
    <trip id="veh23" type="veh_passenger" depart="76.78" departLane="best" from="23539815#1" to="12403541#1"/>
    <trip id="veh24" type="veh_passenger" depart="80.12" departLane="best" from="13859952#1" to="94131894#0"/>
    <trip id="veh25" type="veh_passenger" depart="83.46" departLane="best" from="52361613#0" to="5098782#2"/>
    <trip id="veh26" type="veh_passenger" depart="86.80" departLane="best" from="12268687#1" to="61720123"/>
    <trip id="veh27" type="veh_passenger" depart="90.13" departLane="best" from="1225247284#0" to="625596130#0"/>
    <trip id="veh28" type="veh_passenger" depart="93.47" departLane="best" from="98711574#2" to="52361591#0"/>
    <trip id="veh29" type="veh_passenger" depart="96.81" departLane="best" from="4890124#4" to="52394709#6"/>
    <trip id="veh30" type="veh_passenger" depart="100.15" departLane="best" from="13470140#0" to="-98711555"/>
    <trip id="veh31" type="veh_passenger" depart="103.49" departLane="best" from="191715089" to="13859215#6"/>
    <trip id="veh33" type="veh_passenger" depart="110.16" departLane="best" from="8102619#3" to="191617371#5"/>
    <trip id="veh34" type="veh_passenger" depart="113.50" departLane="best" from="52361624#1" to="289747540#2"/>
    <trip id="veh35" type="veh_passenger" depart="116.84" departLane="best" from="9281513#2" to="447271371#2"/>
    <trip id="veh36" type="veh_passenger" depart="120.18" departLane="best" from="13859578#1" to="13470143#2"/>
    <trip id="veh37" type="veh_passenger" depart="123.52" departLane="best" departSpeed="max" from="497484170" to="13839706#0"/>
    <trip id="veh38" type="veh_passenger" depart="126.86" departLane="best" from="5073109#8" to="8102615#1"/>
    <trip id="veh39" type="veh_passenger" depart="130.19" departLane="best" from="319005196#1" to="1291522982"/>
    <trip id="veh40" type="veh_passenger" depart="133.53" departLane="best" from="9874977#0" to="4808250#3"/>
    <trip id="veh41" type="veh_passenger" depart="136.87" departLane="best" from="114102534#1" to="1027474076#1"/>
    <trip id="veh42" type="veh_passenger" depart="140.21" departLane="best" departSpeed="max" from="116807173#0" to="52092236#1"/>
    <trip id="veh43" type="veh_passenger" depart="143.55" departLane="best" from="722005717#2" to="372352250#1"/>
    <trip id="veh44" type="veh_passenger" depart="146.89" departLane="best" from="1079134403#1" to="23539806#1"/>
    <trip id="veh45" type="veh_passenger" depart="150.22" departLane="best" from="9874866#5" to="488462567"/>
    <trip id="veh46" type="veh_passenger" depart="153.56" departLane="best" departSpeed="max" from="9863967" to="782530949"/>
    <trip id="veh47" type="veh_passenger" depart="156.90" departLane="best" departSpeed="max" from="-223964218" to="61044525#1"/>
    <trip id="veh48" type="veh_passenger" depart="160.24" departLane="best" from="60432371" to="4890108#5"/>
    <trip id="veh49" type="veh_passenger" depart="163.58" departLane="best" from="13859952#1" to="52361593#1"/>
    <trip id="veh51" type="veh_passenger" depart="170.25" departLane="best" from="447271371#6" to="95512944#0"/>
    <trip id="veh52" type="veh_passenger" depart="173.59" departLane="best" from="8102619#1" to="13839706#1"/>
    <trip id="veh53" type="veh_passenger" depart="176.93" departLane="best" from="4795045#0" to="12262757#0"/>
    <trip id="veh54" type="veh_passenger" depart="180.27" departLane="best" from="191715080#0" to="52361586#0"/>
    <trip id="veh55" type="veh_passenger" depart="183.61" departLane="best" from="5098790#2" to="11993928"/>
    <trip id="veh56" type="veh_passenger" depart="186.95" departLane="best" from="640493170#2" to="4890115#1"/>
    <trip id="veh57" type="veh_passenger" depart="190.28" departLane="best" from="1074357642#0" to="191715080#2"/>
    <trip id="veh58" type="veh_passenger" depart="193.62" departLane="best" from="-409287146" to="882511746#1"/>
    <trip id="veh59" type="veh_passenger" depart="196.96" departLane="best" departSpeed="max" from="8102632#0" to="7666175#0"/>
    <trip id="veh60" type="veh_passenger" depart="200.30" departLane="best" from="191715082#4" to="1062891207#4"/>
    <trip id="veh62" type="veh_passenger" depart="206.98" departLane="best" from="114102521#5" to="4704763#8"/>
    <trip id="veh63" type="veh_passenger" depart="210.31" departLane="best" from="1121088263#0" to="6277197#1"/>
    <trip id="veh64" type="veh_passenger" depart="213.65" departLane="best" from="640493170#3" to="116822301#0"/>
    <trip id="veh65" type="veh_passenger" depart="216.99" departLane="best" from="4704763#2" to="4890123#1"/>
    <trip id="veh66" type="veh_passenger" depart="220.33" departLane="best" from="13859578#2" to="800130448#3"/>
    <trip id="veh67" type="veh_passenger" depart="223.67" departLane="best" from="41397537#0" to="12459675#1"/>
    <trip id="veh68" type="veh_passenger" depart="227.01" departLane="best" departSpeed="max" from="4890119#0" to="61720123"/>
    <trip id="veh69" type="veh_passenger" depart="230.34" departLane="best" from="1246411945#0" to="191617371#11"/>
    <trip id="veh70" type="veh_passenger" depart="233.68" departLane="best" from="9874866#4" to="52361607#1"/>
    <trip id="veh71" type="veh_passenger" depart="237.02" departLane="best" departSpeed="max" from="447171439#0" to="4808270#1"/>
    <trip id="veh72" type="veh_passenger" depart="240.36" departLane="best" departSpeed="max" from="1180067867#0" to="1291522983#1"/>
    <trip id="veh74" type="veh_passenger" depart="247.04" departLane="best" from="13470140#3" to="1291522982"/>
    <trip id="veh75" type="veh_passenger" depart="250.37" departLane="best" from="1121088263#1" to="52092244#1"/>
    <trip id="veh77" type="veh_passenger" depart="257.05" departLane="best" departSpeed="max" from="8099705#0" to="1113043661#0"/>
    <trip id="veh78" type="veh_passenger" depart="260.39" departLane="best" from="13754323#1" to="52361626"/>
    <trip id="veh79" type="veh_passenger" depart="263.73" departLane="best" from="94131913#2" to="5007131#3"/>
    <trip id="veh80" type="veh_passenger" depart="267.07" departLane="best" from="4704759#2" to="640493170#0"/>
    <trip id="veh81" type="veh_passenger" depart="270.40" departLane="best" from="7666175#2" to="1230681468#0"/>
    <trip id="veh82" type="veh_passenger" depart="273.74" departLane="best" from="1155617200#1" to="409287146"/>
    <trip id="veh83" type="veh_passenger" depart="277.08" departLane="best" from="41397537#0" to="447271378#1"/>
    <trip id="veh84" type="veh_passenger" depart="280.42" departLane="best" from="625596130#3" to="52372529#1"/>
    <trip id="veh85" type="veh_passenger" depart="283.76" departLane="best" from="98711537#7" to="114102534#2"/>
    <trip id="veh86" type="veh_passenger" depart="287.10" departLane="best" from="37034412#4" to="191904991"/>
    <trip id="veh87" type="veh_passenger" depart="290.43" departLane="best" from="8099705#3" to="13684445#0"/>
    <trip id="veh88" type="veh_passenger" depart="293.77" departLane="best" from="12403434#1" to="7666169#1"/>
    <trip id="veh89" type="veh_passenger" depart="297.11" departLane="best" from="41397536" to="13859952#2"/>
    <trip id="veh90" type="veh_passenger" depart="300.45" departLane="best" from="13839706#1" to="624442658#0"/>
    <trip id="veh91" type="veh_passenger" depart="303.79" departLane="best" from="447171439#3" to="7970445#0"/>
    <trip id="veh92" type="veh_passenger" depart="307.13" departLane="best" from="4890124#1" to="1027474076#1"/>
    <trip id="veh93" type="veh_passenger" depart="310.46" departLane="best" from="99093093#2" to="7666190#1"/>
    <trip id="veh94" type="veh_passenger" depart="313.80" departLane="best" departSpeed="max" from="9863967" to="-8811243"/>
    <trip id="veh95" type="veh_passenger" depart="317.14" departLane="best" from="802717142#2" to="1213004171#1"/>
    <trip id="veh97" type="veh_passenger" depart="323.82" departLane="best" from="319005198#1" to="1062891207#5"/>
    <trip id="veh98" type="veh_passenger" depart="327.16" departLane="best" from="289656995#3" to="98711543#3"/>
    <trip id="veh99" type="veh_passenger" depart="330.49" departLane="best" from="13859578#2" to="640493170#0"/>
    <trip id="veh100" type="veh_passenger" depart="333.83" departLane="best" from="447271375" to="372352251"/>
    <trip id="veh101" type="veh_passenger" depart="337.17" departLane="best" departSpeed="max" from="97020726#0" to="9874866#4"/>
    <trip id="veh102" type="veh_passenger" depart="340.51" departLane="best" from="4890124#3" to="61044486#1"/>
    <trip id="veh103" type="veh_passenger" depart="343.85" departLane="best" from="1213004171#1" to="187017776#2"/>
    <trip id="veh104" type="veh_passenger" depart="347.19" departLane="best" departSpeed="max" from="9863967" to="5011437#1"/>
    <trip id="veh105" type="veh_passenger" depart="350.52" departLane="best" from="4890121#1" to="625596130#2"/>
    <trip id="veh106" type="veh_passenger" depart="353.86" departLane="best" from="1074357643#0" to="5073109#1"/>
    <trip id="veh107" type="veh_passenger" depart="357.20" departLane="best" from="4795046#5" to="770904168#0"/>
    <trip id="veh108" type="veh_passenger" depart="360.54" departLane="best" departSpeed="max" from="1225247282#0" to="97020722#0"/>
    <trip id="veh109" type="veh_passenger" depart="363.88" departLane="best" from="5073115#3" to="52372529#4"/>
    <trip id="veh110" type="veh_passenger" depart="367.22" departLane="best" from="13684445#0" to="115600564#10"/>
    <trip id="veh111" type="veh_passenger" depart="370.55" departLane="best" from="812825804#0" to="13470143#0"/>
    <trip id="veh112" type="veh_passenger" depart="373.89" departLane="best" from="114102521#0" to="5136736#0"/>
    <trip id="veh113" type="veh_passenger" depart="377.23" departLane="best" departSpeed="max" from="41197572#0" to="5073109#0"/>
    <trip id="veh114" type="veh_passenger" depart="380.57" departLane="best" from="1267904043#0" to="61044486#0"/>
    <trip id="veh115" type="veh_passenger" depart="383.91" departLane="best" from="13762512#2" to="289747540#2"/>
    <trip id="veh116" type="veh_passenger" depart="387.24" departLane="best" from="52394714#1" to="188336807#1"/>
    <trip id="veh117" type="veh_passenger" depart="390.58" departLane="best" from="191715089" to="627037403"/>
    <trip id="veh118" type="veh_passenger" depart="393.92" departLane="best" from="1121088263#1" to="447178063#3"/>
    <trip id="veh119" type="veh_passenger" depart="397.26" departLane="best" from="99093074#0" to="9874866#5"/>
    <trip id="veh120" type="veh_passenger" depart="400.60" departLane="best" from="1125704882" to="12459675#1"/>
    <trip id="veh121" type="veh_passenger" depart="403.94" departLane="best" from="13859578#2" to="640493169"/>
    <trip id="veh122" type="veh_passenger" depart="407.27" departLane="best" from="8102632#1" to="8099700#5"/>
    <trip id="veh123" type="veh_passenger" depart="410.61" departLane="best" from="23539811#1" to="1199528238"/>
    <trip id="veh124" type="veh_passenger" depart="413.95" departLane="best" from="7724671#1" to="61044485#0"/>
    <trip id="veh125" type="veh_passenger" depart="417.29" departLane="best" from="5136421#1" to="-98711555"/>
    <trip id="veh126" type="veh_passenger" depart="420.63" departLane="best" from="52361624#0" to="-223964215"/>
    <trip id="veh127" type="veh_passenger" depart="423.97" departLane="best" from="769462300#0" to="188336807#1"/>
    <trip id="veh128" type="veh_passenger" depart="427.30" departLane="best" from="52372535#1" to="94131898#0"/>
    <trip id="veh129" type="veh_passenger" depart="430.64" departLane="best" from="1180067867#2" to="115600564#1"/>
    <trip id="veh130" type="veh_passenger" depart="433.98" departLane="best" from="11676057#0" to="4890124#1"/>
    <trip id="veh131" type="veh_passenger" depart="437.32" departLane="best" departSpeed="max" from="146378161#0" to="5098774#2"/>
    <trip id="veh132" type="veh_passenger" depart="440.66" departLane="best" from="624442652#1" to="12403459#1"/>
    <trip id="veh133" type="veh_passenger" depart="444.00" departLane="best" from="52361597#1" to="13839707"/>
    <trip id="veh135" type="veh_passenger" depart="450.67" departLane="best" from="800130448#0" to="114102521#5"/>
    <trip id="veh136" type="veh_passenger" depart="454.01" departLane="best" from="41397537#0" to="13859952#2"/>
    <trip id="veh138" type="veh_passenger" depart="460.69" departLane="best" from="52361605#0" to="-13839704#0"/>
    <trip id="veh139" type="veh_passenger" depart="464.03" departLane="best" from="6277199#1" to="4890124#0"/>
    <trip id="veh140" type="veh_passenger" depart="467.36" departLane="best" from="42164115" to="-223964217"/>
    <trip id="veh141" type="veh_passenger" depart="470.70" departLane="best" from="1132267980#0" to="8099702#1"/>
    <trip id="veh142" type="veh_passenger" depart="474.04" departLane="best" from="831769936#0" to="4890121#4"/>
    <trip id="veh143" type="veh_passenger" depart="477.38" departLane="best" from="5098790#0" to="5073108#4"/>
    <trip id="veh145" type="veh_passenger" depart="484.06" departLane="best" from="723272868" to="782530949"/>
    <trip id="veh146" type="veh_passenger" depart="487.39" departLane="best" from="822911497" to="12403541#1"/>
    <trip id="veh147" type="veh_passenger" depart="490.73" departLane="best" from="13839706#0" to="114102534#5"/>
    <trip id="veh148" type="veh_passenger" depart="494.07" departLane="best" from="715820520" to="8099705#3"/>
    <trip id="veh149" type="veh_passenger" depart="497.41" departLane="best" from="389589006#0" to="5136736#4"/>
    <trip id="veh150" type="veh_passenger" depart="500.75" departLane="best" from="1213004171#1" to="882511746#2"/>
    <trip id="veh151" type="veh_passenger" depart="504.09" departLane="best" from="8099700#2" to="98711537#5"/>
    <trip id="veh152" type="veh_passenger" depart="507.42" departLane="best" from="7666190#1" to="8099701#0"/>
    <trip id="veh153" type="veh_passenger" depart="510.76" departLane="best" from="721219459#0" to="624442652#0"/>
    <trip id="veh154" type="veh_passenger" depart="514.10" departLane="best" from="211290865#0" to="9281513#2"/>
    <trip id="veh155" type="veh_passenger" depart="517.44" departLane="best" from="7666163#2" to="7970445#1"/>
    <trip id="veh157" type="veh_passenger" depart="524.12" departLane="best" from="722005717#0" to="114102536#0"/>
    <trip id="veh158" type="veh_passenger" depart="527.45" departLane="best" from="8102614#2" to="7724671#0"/>
    <trip id="veh159" type="veh_passenger" depart="530.79" departLane="best" from="447710247#0" to="191617371#11"/>
    <trip id="veh160" type="veh_passenger" depart="534.13" departLane="best" from="722546379#0" to="13470109#1"/>
    <trip id="veh161" type="veh_passenger" depart="537.47" departLane="best" from="61044481#0" to="1230681470#0"/>
    <trip id="veh162" type="veh_passenger" depart="540.81" departLane="best" from="211248470#3" to="7970445#1"/>
    <trip id="veh163" type="veh_passenger" depart="544.15" departLane="best" departSpeed="max" from="9863965" to="142802046"/>
    <trip id="veh164" type="veh_passenger" depart="547.48" departLane="best" from="98711537#5" to="4890108#3"/>
    <trip id="veh165" type="veh_passenger" depart="550.82" departLane="best" from="99093093#3" to="115600564#1"/>
    <trip id="veh166" type="veh_passenger" depart="554.16" departLane="best" departSpeed="max" from="9863967" to="12262757#0"/>
    <trip id="veh167" type="veh_passenger" depart="557.50" departLane="best" from="97020735#1" to="13859213#5"/>
    <trip id="veh168" type="veh_passenger" depart="560.84" departLane="best" departSpeed="max" from="116807173#0" to="41056268#1"/>
    <trip id="veh169" type="veh_passenger" depart="564.18" departLane="best" from="625596130#2" to="191617371#4"/>
    <trip id="veh170" type="veh_passenger" depart="567.51" departLane="best" from="5098787#0" to="4808254#1"/>
    <trip id="veh171" type="veh_passenger" depart="570.85" departLane="best" from="289747541#0" to="5011435"/>
    <trip id="veh172" type="veh_passenger" depart="574.19" departLane="best" departSpeed="max" from="13859214" to="61044485#2"/>
    <trip id="veh173" type="veh_passenger" depart="577.53" departLane="best" from="1074357649#0" to="8454371#2"/>
    <trip id="veh174" type="veh_passenger" depart="580.87" departLane="best" from="6277202" to="52361626"/>
    <trip id="veh175" type="veh_passenger" depart="584.21" departLane="best" from="23539803#1" to="1082146872#2"/>
    <trip id="veh176" type="veh_passenger" depart="587.54" departLane="best" from="52372536#1" to="191715082#4"/>
    <trip id="veh177" type="veh_passenger" depart="590.88" departLane="best" from="191715082#6" to="770904163#0"/>
    <trip id="veh178" type="veh_passenger" depart="594.22" departLane="best" from="624442652#3" to="-191144570#0"/>
    <trip id="veh179" type="veh_passenger" depart="597.56" departLane="best" from="191715082#5" to="314809790#0"/>
    <trip id="veh180" type="veh_passenger" depart="600.90" departLane="best" from="37034412#4" to="187017776#0"/>
    <trip id="veh181" type="veh_passenger" depart="604.24" departLane="best" departSpeed="max" from="1180067867#0" to="37034412#2"/>
    <trip id="veh182" type="veh_passenger" depart="607.57" departLane="best" from="95512934#3" to="52372536#0"/>
    <trip id="veh183" type="veh_passenger" depart="610.91" departLane="best" from="191715080#2" to="4890122#3"/>
    <trip id="veh184" type="veh_passenger" depart="614.25" departLane="best" from="1074357642#0" to="154012610#2"/>
    <trip id="veh185" type="veh_passenger" depart="617.59" departLane="best" from="446490793#0" to="5011437#1"/>
    <trip id="veh186" type="veh_passenger" depart="620.93" departLane="best" from="52361624#0" to="447271375"/>
    <trip id="veh188" type="veh_passenger" depart="627.60" departLane="best" from="4704762#1" to="8102629#1"/>
    <trip id="veh189" type="veh_passenger" depart="630.94" departLane="best" from="723272868" to="12183693#2"/>
    <trip id="veh190" type="veh_passenger" depart="634.28" departLane="best" from="114102521#2" to="4808269#2"/>
    <trip id="veh191" type="veh_passenger" depart="637.62" departLane="best" from="52361597#0" to="191715082#6"/>
    <trip id="veh192" type="veh_passenger" depart="640.96" departLane="best" from="769462300#2" to="625674509#1"/>
    <trip id="veh193" type="veh_passenger" depart="644.30" departLane="best" from="52394714#4" to="1291522983#1"/>
    <trip id="veh194" type="veh_passenger" depart="647.63" departLane="best" from="12459675#0" to="-61044481#1"/>
    <trip id="veh195" type="veh_passenger" depart="650.97" departLane="best" from="13838445#1" to="463089664"/>
    <trip id="veh196" type="veh_passenger" depart="654.31" departLane="best" from="803049231#1" to="1121088262#1"/>
    <trip id="veh197" type="veh_passenger" depart="657.65" departLane="best" from="41056273#0" to="52092241#2"/>
    <trip id="veh198" type="veh_passenger" depart="660.99" departLane="best" departSpeed="max" from="12403502#0" to="60432371"/>
    <trip id="veh199" type="veh_passenger" depart="664.33" departLane="best" departSpeed="max" from="4758625#0" to="13470140#3"/>
    <trip id="veh200" type="veh_passenger" depart="667.66" departLane="best" from="11676057#0" to="372352253"/>
    <trip id="veh201" type="veh_passenger" depart="671.00" departLane="best" from="12268690#0" to="95512944#2"/>
    <trip id="veh202" type="veh_passenger" depart="674.34" departLane="best" from="4808270#2" to="1027474076#1"/>
    <trip id="veh203" type="veh_passenger" depart="677.68" departLane="best" from="13839706#0" to="770904165#0"/>
    <trip id="veh204" type="veh_passenger" depart="681.02" departLane="best" from="447271375" to="687038644#2"/>
    <trip id="veh205" type="veh_passenger" depart="684.36" departLane="best" from="52394709#0" to="98711532#3"/>
    <trip id="veh206" type="veh_passenger" depart="687.69" departLane="best" from="5073115#3" to="95512936#3"/>
    <trip id="veh207" type="veh_passenger" depart="691.03" departLane="best" from="814874475#0" to="7724671#4"/>
    <trip id="veh208" type="veh_passenger" depart="694.37" departLane="best" from="624442652#3" to="4795046#5"/>
    <trip id="veh209" type="veh_passenger" depart="697.71" departLane="best" from="7724658#2" to="4890122#3"/>
    <trip id="veh210" type="veh_passenger" depart="701.05" departLane="best" from="822911496" to="625596130#0"/>
    <trip id="veh211" type="veh_passenger" depart="704.39" departLane="best" from="4704763#1" to="13838447#1"/>
    <trip id="veh212" type="veh_passenger" depart="707.72" departLane="best" from="13839702#0" to="52348263#1"/>
    <trip id="veh213" type="veh_passenger" depart="711.06" departLane="best" from="640493170#3" to="4823218#2"/>
    <trip id="veh214" type="veh_passenger" depart="714.40" departLane="best" from="52348254#0" to="13859581"/>
    <trip id="veh215" type="veh_passenger" depart="717.74" departLane="best" from="1132267980#3" to="154012610#0"/>
    <trip id="veh216" type="veh_passenger" depart="721.08" departLane="best" departSpeed="max" from="146378161#0" to="191617371#9"/>
    <trip id="veh217" type="veh_passenger" depart="724.42" departLane="best" from="4890119#2" to="1180067867#2"/>
    <trip id="veh219" type="veh_passenger" depart="731.09" departLane="best" departSpeed="max" from="61720122" to="1074357648#0"/>
    <trip id="veh221" type="veh_passenger" depart="737.77" departLane="best" departSpeed="max" from="41197572#0" to="12403519#1"/>
    <trip id="veh223" type="veh_passenger" depart="744.45" departLane="best" from="8099700#6" to="6277218#0"/>
    <trip id="veh224" type="veh_passenger" depart="747.78" departLane="best" from="289656995#4" to="-13859214"/>
    <trip id="veh225" type="veh_passenger" depart="751.12" departLane="best" departSpeed="max" from="223964215" to="627037403"/>
    <trip id="veh226" type="veh_passenger" depart="754.46" departLane="best" from="8099700#3" to="95512944#0"/>
    <trip id="veh227" type="veh_passenger" depart="757.80" departLane="best" departSpeed="max" from="41197572#0" to="625596130#2"/>
    <trip id="veh228" type="veh_passenger" depart="761.14" departLane="best" from="4890122#4" to="5073116#1"/>
    <trip id="veh229" type="veh_passenger" depart="764.47" departLane="best" from="13470121#3" to="1291522982"/>
    <trip id="veh230" type="veh_passenger" depart="767.81" departLane="best" departSpeed="max" from="447171439#0" to="-965741022#0"/>
    <trip id="veh231" type="veh_passenger" depart="771.15" departLane="best" from="212738036" to="52372541#2"/>
    <trip id="veh232" type="veh_passenger" depart="774.49" departLane="best" from="372352250#2" to="1213004171#1"/>
    <trip id="veh233" type="veh_passenger" depart="777.83" departLane="best" from="464615509#2" to="116807176"/>
    <trip id="veh234" type="veh_passenger" depart="781.17" departLane="best" from="52092241#0" to="-94124274#0"/>
    <trip id="veh235" type="veh_passenger" depart="784.50" departLane="best" from="314809790#1" to="5002131#1"/>
    <trip id="veh236" type="veh_passenger" depart="787.84" departLane="best" from="-94124274#0" to="52361597#1"/>
    <trip id="veh237" type="veh_passenger" depart="791.18" departLane="best" from="1180067867#4" to="447271371#4"/>
    <trip id="veh238" type="veh_passenger" depart="794.52" departLane="best" from="1062891207#1" to="625596130#0"/>
    <trip id="veh239" type="veh_passenger" depart="797.86" departLane="best" from="1291522984#1" to="191715082#2"/>
    <trip id="veh240" type="veh_passenger" depart="801.20" departLane="best" from="640493170#1" to="23539801#3"/>
    <trip id="veh241" type="veh_passenger" depart="804.53" departLane="best" from="640493168#1" to="7666175#1"/>
    <trip id="veh242" type="veh_passenger" depart="807.87" departLane="best" from="13859213#5" to="1132267980#0"/>
    <trip id="veh243" type="veh_passenger" depart="811.21" departLane="best" from="-409287146" to="4890115#1"/>
    <trip id="veh244" type="veh_passenger" depart="814.55" departLane="best" from="99093093#3" to="211248458#1"/>
    <trip id="veh245" type="veh_passenger" depart="817.89" departLane="best" from="52361619#2" to="640493168#6"/>
    <trip id="veh246" type="veh_passenger" depart="821.23" departLane="best" from="4758625#5" to="627258484"/>
    <trip id="veh247" type="veh_passenger" depart="824.56" departLane="best" from="95512944#2" to="12403434#1"/>
    <trip id="veh248" type="veh_passenger" depart="827.90" departLane="best" from="-4806364#1" to="11993641#0"/>
    <trip id="veh249" type="veh_passenger" depart="831.24" departLane="best" departSpeed="max" from="1180067867#0" to="52361626"/>
    <trip id="veh250" type="veh_passenger" depart="834.58" departLane="best" from="5002131#0" to="1267904043#0"/>
    <trip id="veh251" type="veh_passenger" depart="837.92" departLane="best" from="61044485#5" to="6277218#1"/>
    <trip id="veh252" type="veh_passenger" depart="841.26" departLane="best" from="12262756#2" to="5098778#1"/>
    <trip id="veh253" type="veh_passenger" depart="844.59" departLane="best" from="6277226#2" to="4758622#3"/>
    <trip id="veh255" type="veh_passenger" depart="851.27" departLane="best" from="11676057#1" to="-8811243"/>
    <trip id="veh256" type="veh_passenger" depart="854.61" departLane="best" from="191715082#6" to="52372536#0"/>