<?xml version="1.0" encoding="UTF-8"?>

<!-- generated on 2024-07-01 13:07:09.889660 by $Id: ptlines2flows.py v1_3_1+0313-ccb31df3eb jakob.erdmann@dlr.de 2019-09-02 13:26:32 +0200 $ v1_19_0+0000-baa66a0f364
<configuration>
    <net-file value="C:\Users\Jaime\Sumo\2024-07-01-13-06-59\osm.net.xml.gz"/>
    <ptlines-file value="C:\Users\Jaime\Sumo\2024-07-01-13-06-59\osm_ptlines.xml"/>
    <ptstops-file value="C:\Users\Jaime\Sumo\2024-07-01-13-06-59\osm_stops.add.xml"/>
    <output-file value="C:\Users\Jaime\Sumo\2024-07-01-13-06-59\osm_pt.rou.xml"/>
    <stopinfos-file value="C:\Users\Jaime\Sumo\2024-07-01-13-06-59\stopinfos.xml"/>
    <routes-file value="C:\Users\Jaime\Sumo\2024-07-01-13-06-59\vehroutes.xml"/>
    <trips-file value="C:\Users\Jaime\Sumo\2024-07-01-13-06-59\trips.trips.xml"/>
    <end value="4000.0"/>
    <min-stops value="0"/>
    <extend-to-fringe value="True"/>
    <random-begin value="True"/>
    <seed value="42"/>
    <ignore-errors value="True"/>
    <vtype-prefix value="pt_"/>
    <verbose value="True"/>
</configuration>
-->

<routes xmlns:xsi="http://www.w3.org/2001/XMLSchema-instance" xsi:noNamespaceSchemaLocation="http://sumo.dlr.de/xsd/routes_file.xsd">
    <vType id="pt_bus" vClass="bus" speedFactor="0.95"/>
    <vType id="pt_tram" vClass="tram" speedFactor="1.0"/>
    <vType id="pt_train" vClass="rail"/>
    <vType id="pt_subway" vClass="rail_urban"/>
    <vType id="pt_light_rail" vClass="rail_urban"/>
    <vType id="pt_monorail" vClass="rail_urban"/>
    <vType id="pt_trolleybus" vClass="bus" speedFactor="0.95"/>
    <vType id="pt_minibus" vClass="bus" speedFactor="0.95"/>
    <vType id="pt_share_taxi" vClass="taxi" speedFactor="0.95"/>
    <vType id="pt_aerialway" vClass="rail_urban" length="2.5" width="2" personCapacity="4"/>
    <vType id="pt_ferry" vClass="ship"/>
    <trip id="0_train_C-2:0" type="pt_train" depart="3.0" departLane="best" from="10157206" to="10157206">
        <stop busStop="3973025548" duration="30"/>
    </trip>
    <trip id="1_train_C-3:0" type="pt_train" depart="15.0" departLane="best" from="1028342655" to="1028342655">
        <stop busStop="3973025541" duration="30"/>
    </trip>
    <trip id="2_tram_10:0" type="pt_tram" depart="15.0" departLane="best" from="-1068225426" to="-1068225426">
        <stop busStop="-9759469603" duration="30"/>
        <stop busStop="3420403041" duration="30"/>
        <stop busStop="9759531876" duration="30"/>
    </trip>
    <trip id="3_tram_10:1" type="pt_tram" depart="17.0" departLane="best" from="320501846#0" to="320501846#1">
        <stop busStop="3420403038" duration="30"/>
        <stop busStop="1334394371" duration="30"/>
        <stop busStop="-9759522716" duration="30"/>
    </trip>
    <trip id="4_tram_10:2" type="pt_tram" depart="27.0" departLane="best" from="320501846#0" to="320501846#1">
        <stop busStop="3420403038" duration="30"/>
        <stop busStop="1334394371" duration="30"/>
        <stop busStop="-9759522716" duration="30"/>
    </trip>
    <trip id="5_tram_10:3" type="pt_tram" depart="47.0" departLane="best" from="-1068225426" to="-1068225426">
        <stop busStop="-9759469603" duration="30"/>
        <stop busStop="3420403041" duration="30"/>
        <stop busStop="9759531876" duration="30"/>
    </trip>
    <trip id="6_train_C-1:0" type="pt_train" depart="52.0" departLane="best" from="1028342654" to="1028342654">
        <stop busStop="3973025542" duration="30"/>
    </trip>
    <trip id="7_train_C-3:1" type="pt_train" depart="55.0" departLane="best" from="1028342655" to="1028342655">
        <stop busStop="3973025541" duration="30"/>
    </trip>
    <trip id="8_train_C-3:2" type="pt_train" depart="58.0" departLane="best" from="1028342655" to="1028342655">
        <stop busStop="3973025541" duration="30"/>
    </trip>
    <trip id="9_train_C-1:1" type="pt_train" depart="60.0" departLane="best" from="1028342653" to="1028342653">
        <stop busStop="3973025543" duration="30"/>
    </trip>
    <trip id="10_train_C-1:2" type="pt_train" depart="93.0" departLane="best" from="1028342654" to="1028342654">
        <stop busStop="3973025542" duration="30"/>
    </trip>
    <trip id="11_train_C-6:0" type="pt_train" depart="119.0" departLane="best" from="1028342656" to="1028342656">
        <stop busStop="3973025540" duration="30"/>
    </trip>
    <trip id="12_train_C-6:1" type="pt_train" depart="131.0" departLane="best" from="1028342656" to="1028342656">
        <stop busStop="3973025540" duration="30"/>
    </trip>
    <trip id="13_train_L-50:0" type="pt_train" depart="132.0" departLane="best" from="1028342656" to="1028342656">
        <stop busStop="3973025540" duration="30"/>
    </trip>
    <trip id="14_train_ER-02:0" type="pt_train" depart="133.0" departLane="best" from="1028342656" to="1028342656">
        <stop busStop="3973025540" duration="30"/>
    </trip>
    <trip id="15_train_L-50:1" type="pt_train" depart="136.0" departLane="best" from="1028342656" to="1028342656">
        <stop busStop="3973025540" duration="30"/>
    </trip>
    <trip id="16_train_ER-02:1" type="pt_train" depart="139.0" departLane="best" from="1028342656" to="1028342656">
        <stop busStop="3973025540" duration="30"/>
    </trip>
    <trip id="17_train_ER24:0" type="pt_train" depart="165.0" departLane="best" from="10157206" to="10157206">
        <stop busStop="3973025548" duration="30"/>
    </trip>
    <trip id="18_train_ER24:1" type="pt_train" depart="173.0" departLane="best" from="10157206" to="10157206">
        <stop busStop="3973025548" duration="30"/>
    </trip>
    <trip id="19_train_Alacant_Terminal_=_València_-_Estació_del_Nord:0" type="pt_train" depart="201.0" departLane="best" from="10157206" to="10157206">
        <stop busStop="3973025548" duration="30"/>
    </trip>
    <trip id="20_train_C-2:1" type="pt_train" depart="204.0" departLane="best" from="10157206" to="10157206">
        <stop busStop="3973025548" duration="30"/>
    </trip>
    <trip id="21_train_C-2:2" type="pt_train" depart="227.0" departLane="best" from="10157206" to="10157206">
        <stop busStop="3973025548" duration="30"/>
    </trip>
    <trip id="22_train_L-50:2" type="pt_train" depart="253.0" departLane="best" from="1028342656" to="1028342656">
        <stop busStop="3973025540" duration="30"/>
    </trip>
    <trip id="23_train_L-50:3" type="pt_train" depart="303.0" departLane="best" from="1028342656" to="1028342656">
        <stop busStop="3973025540" duration="30"/>
    </trip>
    <trip id="24_train_València_-_Estació_del_Nord_=_Alacant_Terminal:0" type="pt_train" depart="321.0" departLane="best" from="10157206" to="10157206">
        <stop busStop="3973025548" duration="30"/>
    </trip>
    <trip id="25_train_C-6:2" type="pt_train" depart="326.0" departLane="best" from="1028342656" to="1028342656">
        <stop busStop="3973025540" duration="30"/>
    </trip>
    <trip id="26_train_C-3:3" type="pt_train" depart="331.0" departLane="best" from="1028342655" to="1028342655">
        <stop busStop="3973025541" duration="30"/>
    </trip>
    <trip id="27_train_C-5:0" type="pt_train" depart="346.0" departLane="best" from="41051601" to="41051601">
        <stop busStop="3973025546" duration="30"/>
    </trip>
    <trip id="28_train_C-2:3" type="pt_train" depart="353.0" departLane="best" from="10157206" to="10157206">
        <stop busStop="3973025548" duration="30"/>
    </trip>
    <trip id="29_subway_7:0" type="pt_subway" depart="362.0" departLane="best" from="377367121#0" to="11353724">
        <stop busStop="260601661" duration="30"/>
        <stop busStop="260594756" duration="30"/>
        <stop busStop="100946872" duration="30"/>
        <stop busStop="3286032162" duration="30"/>
        <stop busStop="104667613" duration="30"/>
        <stop busStop="357913578" duration="30"/>
    </trip>
    <trip id="30_subway_5:0" type="pt_subway" depart="371.0" departLane="best" from="328525628#0" to="377367122#1">
        <stop busStop="3299339267" duration="30"/>
        <stop busStop="3299339264" duration="30"/>
        <stop busStop="3299338356" duration="30"/>
        <stop busStop="3299338336" duration="30"/>
        <stop busStop="3352213376" duration="30"/>
        <stop busStop="3289974569" duration="30"/>
        <stop busStop="3288743173" duration="30"/>
        <stop busStop="3286032162" duration="30"/>
        <stop busStop="3290266973" duration="30"/>
        <stop busStop="3290266975" duration="30"/>
        <stop busStop="3290266999" duration="30"/>
    </trip>
    <trip id="31_subway_2:0" type="pt_subway" depart="383.0" departLane="best" from="822279164#0" to="822279164#2">
        <stop busStop="3348096580" duration="30"/>
        <stop busStop="3300258617" duration="30"/>
        <stop busStop="3300258624" duration="30"/>
        <stop busStop="3300258625" duration="30"/>
        <stop busStop="3300258626" duration="30"/>
    </trip>
    <trip id="32_subway_1:0" type="pt_subway" depart="389.0" departLane="best" from="822279164#0" to="822279164#2">
        <stop busStop="3348096580" duration="30"/>
        <stop busStop="3300258617" duration="30"/>
        <stop busStop="3300258624" duration="30"/>
        <stop busStop="3300258625" duration="30"/>
        <stop busStop="3300258626" duration="30"/>
    </trip>
    <trip id="33_subway_3:0" type="pt_subway" depart="406.0" departLane="best" from="328525628#0" to="233678857#1">
        <stop busStop="3299339267" duration="30"/>
        <stop busStop="3299339264" duration="30"/>
        <stop busStop="3299338356" duration="30"/>
        <stop busStop="3299338336" duration="30"/>
        <stop busStop="3352213376" duration="30"/>
        <stop busStop="3289974569" duration="30"/>
        <stop busStop="3288743173" duration="30"/>
        <stop busStop="3352213321" duration="30"/>
        <stop busStop="2420238762" duration="30"/>
    </trip>
    <trip id="34_subway_1:1" type="pt_subway" depart="418.0" departLane="best" from="-822279165#2" to="-23776427">
        <stop busStop="-137045354" duration="30"/>
        <stop busStop="-137045360" duration="30"/>
        <stop busStop="-126738958" duration="30"/>
        <stop busStop="-474683327" duration="30"/>
    </trip>
    <trip id="35_subway_2:1" type="pt_subway" depart="422.0" departLane="best" from="-822279165#2" to="-23776427">
        <stop busStop="-137045354" duration="30"/>
        <stop busStop="-137045360" duration="30"/>
        <stop busStop="-126738958" duration="30"/>
        <stop busStop="-474683327" duration="30"/>
    </trip>
    <trip id="36_subway_3:1" type="pt_subway" depart="437.0" departLane="best" from="11697495" to="323321229#2">
        <stop busStop="104667516" duration="30"/>
        <stop busStop="100937003" duration="30"/>
        <stop busStop="104667613" duration="30"/>
        <stop busStop="126738929" duration="30"/>
        <stop busStop="3298673412" duration="30"/>
        <stop busStop="129946697" duration="30"/>
        <stop busStop="129946955" duration="30"/>
        <stop busStop="1145573720" duration="30"/>
        <stop busStop="316591398" duration="30"/>
    </trip>
    <trip id="37_subway_5:1" type="pt_subway" depart="441.0" departLane="best" from="377367121#0" to="323321229#2">
        <stop busStop="260601661" duration="30"/>
        <stop busStop="260594756" duration="30"/>
        <stop busStop="100946872" duration="30"/>
        <stop busStop="3286032162" duration="30"/>
        <stop busStop="104667613" duration="30"/>
        <stop busStop="126738929" duration="30"/>
        <stop busStop="3298673412" duration="30"/>
        <stop busStop="129946697" duration="30"/>
        <stop busStop="129946955" duration="30"/>
        <stop busStop="1145573720" duration="30"/>
        <stop busStop="316591398" duration="30"/>
    </trip>
    <trip id="38_subway_7:1" type="pt_subway" depart="483.0" departLane="best" from="330506672" to="377367122#1">
        <stop busStop="3292250673" duration="30"/>
        <stop busStop="3288743173" duration="30"/>
        <stop busStop="3286032162" duration="30"/>
        <stop busStop="3290266973" duration="30"/>
        <stop busStop="3290266975" duration="30"/>
        <stop busStop="3290266999" duration="30"/>
    </trip>
    <trip id="39_subway_9:0" type="pt_subway" depart="484.0" departLane="best" from="11697495" to="323321229#2">
        <stop busStop="104667516" duration="30"/>
        <stop busStop="100937003" duration="30"/>
        <stop busStop="104667613" duration="30"/>
        <stop busStop="126738929" duration="30"/>
        <stop busStop="3298673412" duration="30"/>
        <stop busStop="129946697" duration="30"/>
        <stop busStop="129946955" duration="30"/>
        <stop busStop="1145573720" duration="30"/>
        <stop busStop="316591398" duration="30"/>
    </trip>
    <trip id="40_subway_9:1" type="pt_subway" depart="485.0" departLane="best" from="328525628#0" to="233678857#1">
        <stop busStop="3299339267" duration="30"/>
        <stop busStop="3299339264" duration="30"/>
        <stop busStop="3299338356" duration="30"/>
        <stop busStop="3299338336" duration="30"/>
        <stop busStop="3352213376" duration="30"/>
        <stop busStop="3289974569" duration="30"/>
        <stop busStop="3288743173" duration="30"/>
        <stop busStop="3352213321" duration="30"/>
        <stop busStop="2420238762" duration="30"/>
    </trip>
    <trip id="41_train_C-1:3" type="pt_train" depart="497.0" departLane="best" from="1028342653" to="1028342653">
        <stop busStop="3973025543" duration="30"/>
    </trip>
    <trip id="42_train_C-1:4" type="pt_train" depart="508.0" departLane="best" from="1028342654" to="1028342654">
        <stop busStop="3973025542" duration="30"/>
    </trip>
    <trip id="43_train_C-1:5" type="pt_train" depart="517.0" departLane="best" from="1028342658" to="748874041#1">
        <stop busStop="3973025544" duration="30"/>
    </trip>
    <trip id="44_bus_Bus_entre_estaciones_Valencia_Norte_y_Joaquín_Sorolla:0" type="pt_bus" depart="535.0" departLane="best" from="1003466036#0" to="261880278">
        <stop busStop="2674971391" duration="30"/>
    </trip>
    <trip id="45_train_C-6:3" type="pt_train" depart="574.0" departLane="best" from="1028342656" to="1028342656">
        <stop busStop="3973025540" duration="30"/>
    </trip>
    <trip id="46_train_C-5:1" type="pt_train" depart="583.0" departLane="best" from="41051601" to="41051601">
        <stop busStop="3973025546" duration="30"/>
    </trip>
</routes>
