<?xml version="1.0" encoding="UTF-8"?>

<!-- generated on 2024-03-08 19:05:44.253680 by osmWebWizard.py v1_19_0+0000-baa66a0f364
<configuration>
    <net-file value="C:\Users\Jaime\Sumo\2024-03-08-19-05-28\osm.net.xml.gz"/>
    <ptlines-file value="C:\Users\Jaime\Sumo\2024-03-08-19-05-28\osm_ptlines.xml"/>
    <ptstops-file value="C:\Users\Jaime\Sumo\2024-03-08-19-05-28\osm_stops.add.xml"/>
    <output-file value="C:\Users\Jaime\Sumo\2024-03-08-19-05-28\osm_pt.rou.xml"/>
    <stopinfos-file value="C:\Users\Jaime\Sumo\2024-03-08-19-05-28\stopinfos.xml"/>
    <routes-file value="C:\Users\Jaime\Sumo\2024-03-08-19-05-28\vehroutes.xml"/>
    <trips-file value="C:\Users\Jaime\Sumo\2024-03-08-19-05-28\trips.trips.xml"/>
    <min-stops value="0"/>
    <extend-to-fringe value="True"/>
    <random-begin value="True"/>
    <seed value="42"/>
    <ignore-errors value="True"/>
    <vtype-prefix value="pt_"/>
    <verbose value="True"/>
</configuration>
-->

<routes xmlns:xsi="http://www.w3.org/2001/XMLSchema-instance" xsi:noNamespaceSchemaLocation="http://sumo.dlr.de/xsd/routes_file.xsd">
    <vType id="pt_bus" vClass="bus"/>
    <vType id="pt_tram" vClass="tram"/>
    <vType id="pt_train" vClass="rail"/>
    <vType id="pt_subway" vClass="rail_urban"/>
    <vType id="pt_light_rail" vClass="rail_urban"/>
    <vType id="pt_monorail" vClass="rail_urban"/>
    <vType id="pt_trolleybus" vClass="bus"/>
    <vType id="pt_minibus" vClass="bus"/>
    <vType id="pt_share_taxi" vClass="taxi"/>
    <vType id="pt_aerialway" vClass="rail_urban" length="2.5" width="2" personCapacity="4"/>
    <vType id="pt_ferry" vClass="ship"/>
    <route id="pt_bus_265:0" color="149,39,110" edges="755551646#0 755551646#1 1127597264#1" >
        <stop busStop="3867910423" duration="20" until="44.0"/> <!-- Neumannsgasse -->
    </route>
    <route id="pt_light_rail_S1:0" color="212,116,174" edges="463462759" >
        <stop busStop="474368351" duration="20" until="76.0"/> <!-- Friedrichstraße -->
    </route>
    <route id="pt_light_rail_S1:1" color="212,116,174" edges="237751551" >
        <stop busStop="1930939368" duration="20" until="69.0"/> <!-- Friedrichstraße -->
    </route>
    <route id="pt_train_RE8:0" color="129,109,166" edges="72984396 32590644#1 32590651#1 32590900#1 25946666 1135947857 25946668#1 421021565#1" >
        <stop busStop="2603331683" duration="20" until="174.0"/> <!-- Berlin Friedrichstraße -->
    </route>
    <route id="pt_tram_M4:0" color="190,20,20" edges="1051100385#0 1051100385#1 1051100385#3 1051100385#4 1051100386 150394035#1 150394035#5 150394035#6 1052827282#3 10597134#1 421641064" >
        <stop busStop="4673135647" duration="20" until="88.0"/> <!-- Spandauer Straße/Marienkirche -->
        <stop busStop="1633759766" duration="20" until="156.0"/> <!-- S Hackescher Markt -->
    </route>
    <route id="pt_train_RE2:0" color="255,230,0" edges="72984396 32590644#1 32590651#1 32590900#1 25946666 1135947857 25946668#1 421021565#1" >
        <stop busStop="2603331683" duration="20" until="219.0"/> <!-- Berlin Friedrichstraße -->
    </route>
    <route id="pt_tram_M4:2" color="190,20,20" edges="803941122 23960874#3 144014234#1 144014234#4 167523653#0 167523653#1 167523653#2 22962554#1 150394036 1051100384" >
        <stop busStop="1633759760" duration="20" until="41.0"/> <!-- S Hackescher Markt -->
        <stop busStop="30731481" duration="20" until="92.0"/> <!-- Spandauer Straße/Marienkirche -->
    </route>
    <route id="pt_train_RE8:1" color="129,109,166" edges="25386365#0 25386365#1 442921387#0 442921387#1 25946656#1 25946673#1 25946674#1 25946676 32590898#1 32590890#1 32590636#1" >
        <stop busStop="29805120" duration="20" until="110.0"/> <!-- Berlin Friedrichstraße -->
        <stop busStop="2776873647" duration="20" until="286.0"/> <!-- Berlin Alexanderplatz -->
    </route>
    <route id="pt_tram_M4:1" color="190,20,20" edges="1051100385#0 1051100385#1 1051100385#3 1051100385#4 1051100386 150394035#1 150394035#5 150394035#6 1052827282#3 10597134#1 421641064" >
        <stop busStop="4673135647" duration="20" until="120.0"/> <!-- Spandauer Straße/Marienkirche -->
        <stop busStop="1633759766" duration="20" until="189.0"/> <!-- S Hackescher Markt -->
    </route>
    <route id="pt_tram_M4:3" color="190,20,20" edges="803941122 23960874#3 144014234#1 144014234#4 167523653#0 167523653#1 167523653#2 22962554#1 150394036 1051100384" >
        <stop busStop="1633759760" duration="20" until="73.0"/> <!-- S Hackescher Markt -->
        <stop busStop="30731481" duration="20" until="143.0"/> <!-- Spandauer Straße/Marienkirche -->
    </route>
    <route id="pt_bus_200:1" color="149,39,110" edges="11549897 1195383177 82654055 1133457765#0 606078065#1 1112054538 61583424#1 534588621#0 534588621#1 284493291#0 72157174#1 171826984#2 195401006 1113401735#1" >
        <stop busStop="6682293818" duration="20" until="140.0"/> <!-- U Rotes Rathaus -->
        <stop busStop="1827996414" duration="20" until="198.0"/> <!-- Spandauer Straße/Marienkirche -->
    </route>
    <route id="pt_light_rail_S5:1" color="242,87,33" edges="4471823#0 4471823#1 4471823#2 4471823#3 25946658#1 25946658#2 196844848 -25946685#1 -195397542 25946681 25946682#1 25946682#2 32590902#1 32590894#1 32590894#2 4471817#1 4471817#2 4471817#3 32590638#1 32590645 32590647#0 32590647#1 32590494#1 32590496#1" >
        <stop busStop="27412232" duration="20" until="70.0"/> <!-- Friedrichstraße -->
        <stop busStop="27411240" duration="20" until="174.0"/> <!-- Hackescher Markt -->
    </route>
    <route id="pt_light_rail_S5:0" color="242,87,33" edges="72984388 32590498#1 32590501#1 32590648 32590649#0 32590649#1 32590649#2 32590640#1 32590640#2 32590653#1 32590904#1 25946685#1 25946685#2 25946678 25946662#1 25946662#2 29384521#1 29384522#1 29384522#2 29384522#3" >
        <stop busStop="1745157971" duration="20" until="79.0"/> <!-- Hackescher Markt -->
        <stop busStop="2603331695" duration="20" until="185.0"/> <!-- Friedrichstraße -->
    </route>
    <route id="pt_train_RE1:1" color="red" edges="72984396 32590644#1 32590651#1 32590900#1 25946666 1135947857 25946668#1 421021565#1" >
        <stop busStop="2603331683" duration="20" until="266.0"/> <!-- Berlin Friedrichstraße -->
    </route>
    <route id="pt_bus_248:0" color="149,39,110" edges="309479676 4611726#1 1132678576#0 819027709 1133457733 81112790#0 81112790#1 23851930" >
        <stop busStop="3867910417" duration="20" until="47.0"/> <!-- Jüdenstraße -->
    </route>
    <route id="pt_tram_M6:1" color="190,20,20" edges="803941122 23960874#3 144014234#1 144014234#4 167523653#0 167523653#1 167523653#2 22962554#1 150394036 1051100384" >
        <stop busStop="1633759760" duration="20" until="74.0"/> <!-- S Hackescher Markt -->
        <stop busStop="30731481" duration="20" until="127.0"/> <!-- Spandauer Straße/Marienkirche -->
    </route>
    <route id="pt_bus_248:1" color="149,39,110" edges="11549897 1195383177 82654055 1133457765#0 1132678575#1 1133457766" >
        <stop busStop="10567768924" duration="20" until="108.0"/> <!-- Jüdenstraße -->
    </route>
    <route id="pt_tram_12:0" color="190,20,20" edges="388702047#0 388702047#2 93584120#2 93584120#3 93584120#4 93584120#5 195411601#4 195411601#3 195411601#2 195411601#0 22820560#1 22820560#2 22820560#3 22820560#4 144014237#3 144014228#0 144014228#1 144014228#2" >
        <stop busStop="990017251" duration="20" until="50.0"/> <!-- U Oranienburger Tor -->
        <stop busStop="247600965" duration="20" until="149.0"/> <!-- S+U Friedrichstraße -->
        <stop busStop="3922258748" duration="20" until="224.0"/> <!-- Universitätsstraße -->
        <stop busStop="2175753204" duration="20" until="271.0"/> <!-- Am Kupfergraben -->
    </route>
    <route id="pt_tram_12:1" color="190,20,20" edges="144014228#2 207364192#1 207364192#2 207364192#3 207364192#4 207364192#5 168254756#1 167272512#0 167272512#1 167272512#2 167272512#3 167272512#4 167272512#5 167272512#6 167272512#7 167272512#9 195411594#1 195411594#2 195411594#3 195411594#4 165409971#4 165409971#3 165409971#2 165409971#1 165409971#0 388702049#1 388702049#2 1044592562#0 1044592562#2" >
        <stop busStop="2175753204" duration="20" until="37.0"/> <!-- Am Kupfergraben -->
        <stop busStop="1673526976" duration="20" until="105.0"/> <!-- Georgenstraße/Am Kupfergraben -->
        <stop busStop="1823298700" duration="20" until="197.0"/> <!-- S+U Friedrichstraße -->
    </route>
    <route id="pt_train_RB23:0" color="235,116,5" edges="25386365#0 25386365#1 442921387#0 442921387#1 25946656#1 25946673#1 25946674#1 25946676 32590898#1 32590890#1 32590636#1" >
        <stop busStop="29805120" duration="20" until="185.0"/> <!-- Berlin Friedrichstraße -->
        <stop busStop="2776873647" duration="20" until="361.0"/> <!-- Berlin Alexanderplatz -->
    </route>
    <route id="pt_bus_245:1" color="149,39,110" edges="-176043807#6 -176043807#0 -176043806#2 -176043806#0 -1100824590#1 -1100824590#0 -111251382#3 -111251382#2 541295978#1 1097921784#1 -541295974#0 -222328410 34848160#2" >
        <stop busStop="-3869306760" duration="20" until="61.0"/> <!-- Deutsches Theater -->
        <stop busStop="-3869306761" duration="20" until="124.0"/> <!-- Friedrichstraße/Reinhardtstraße -->
        <stop busStop="11178436225" duration="20" until="199.0"/> <!-- S+U Friedrichstraße -->
    </route>
    <route id="pt_light_rail_S2:0" color="1,138,71" edges="463462759" >
        <stop busStop="474368351" duration="20" until="76.0"/> <!-- Friedrichstraße -->
    </route>
    <route id="pt_light_rail_S7:0" color="128,112,183" edges="72984388 32590498#1 32590501#1 32590648 32590649#0 32590649#1 32590649#2 32590640#1 32590640#2 32590653#1 32590904#1 25946685#1 25946685#2 25946678 25946662#1 25946662#2 29384521#1 29384522#1 29384522#2 29384522#3" >
        <stop busStop="1745157971" duration="20" until="128.0"/> <!-- Hackescher Markt -->
        <stop busStop="2603331695" duration="20" until="234.0"/> <!-- Friedrichstraße -->
    </route>
    <route id="pt_light_rail_S2:1" color="1,138,71" edges="237751551" >
        <stop busStop="1930939368" duration="20" until="69.0"/> <!-- Friedrichstraße -->
    </route>
    <route id="pt_tram_M6:0" color="190,20,20" edges="1051100385#0 1051100385#1 1051100385#3 1051100385#4 1051100386 150394035#1 150394035#5 150394035#6 1052827282#3 10597134#1 421641064" >
        <stop busStop="4673135647" duration="20" until="152.0"/> <!-- Spandauer Straße/Marienkirche -->
        <stop busStop="1633759766" duration="20" until="269.0"/> <!-- S Hackescher Markt -->
    </route>
    <route id="pt_light_rail_S25:1" color="1,138,71" edges="237751551" >
        <stop busStop="1930939368" duration="20" until="64.0"/> <!-- Friedrichstraße -->
    </route>
    <route id="pt_light_rail_S7:1" color="128,112,183" edges="4471823#0 4471823#1 4471823#2 4471823#3 25946658#1 25946658#2 4471818#1 25946681 25946682#1 25946682#2 32590902#1 32590894#1 32590894#2 4471817#1 4471817#2 4471817#3 32590638#1 32590645 32590647#0 32590647#1 32590494#1 32590496#1" >
        <stop busStop="27412232" duration="20" until="162.0"/> <!-- Friedrichstraße -->
        <stop busStop="27411240" duration="20" until="266.0"/> <!-- Hackescher Markt -->
    </route>
    <route id="pt_light_rail_S25:0" color="1,138,71" edges="463462759" >
        <stop busStop="474368351" duration="20" until="88.0"/> <!-- Friedrichstraße -->
    </route>
    <route id="pt_subway_U2:0" color="218,66,30" edges="200422335" >
        <stop busStop="2094266782" duration="20" until="69.0"/> <!-- Rosa-Luxemburg-Platz -->
    </route>
    <route id="pt_bus_100:1" color="149,39,110" edges="1125871417 1125871619#1 1125871619#2 1125871619#3 1125871619#4 236092221#0 236092221#1 342968607#1 1170522572#0 461526152#1 1126234503#0 1126237668#1 1079495669#1 340498982#0 1170522567#0 251884680#0 251884680#1 1126246695#1 339201217 1126244314#0 1126244314#1 54048862#2 831694400#0 831694400#1 23013165 4611698 202156994#0 72157174#1 171826984#2 195401006 1113401735#1" >
        <stop busStop="3869306771" duration="20" until="95.0"/> <!-- U Unter den Linden -->
        <stop busStop="3870475228" duration="20" until="178.0"/> <!-- Staatsoper -->
        <stop busStop="3867910421" duration="20" until="259.0"/> <!-- U Museumsinsel -->
        <stop busStop="1827996414" duration="20" until="370.0"/> <!-- Spandauer Straße/Marienkirche -->
    </route>
    <route id="pt_subway_U2:1" color="218,66,30" edges="272795470" >
        <stop busStop="4961125734" duration="20" until="77.0"/> <!-- Rosa-Luxemburg-Platz -->
    </route>
    <route id="pt_bus_200:0" color="149,39,110" edges="625647962 415280722 195401013#2 171826985#2 606078072#1 -534588621#1 -534588621#0 606078071#0 61583423#1 -751595930 82654059#0 82654059#1 819027709 1133457733 81112790#0 81112790#1 23851930" >
        <stop busStop="4163212867" duration="20" until="72.0"/> <!-- S+U Alexanderplatz/Memhardstraße -->
        <stop busStop="1827996417" duration="20" until="156.0"/> <!-- Spandauer Straße/Marienkirche -->
        <stop busStop="-6744165042" duration="20" until="304.0"/> <!-- U Rotes Rathaus -->
    </route>
    <route id="pt_train_RE1:0" color="red" edges="25386365#0 25386365#1 442921387#0 442921387#1 25946656#1 25946673#1 25946674#1 25946676 32590898#1 32590890#1 32590636#1" >
        <stop busStop="29805120" duration="20" until="260.0"/> <!-- Berlin Friedrichstraße -->
        <stop busStop="2776873647" duration="20" until="436.0"/> <!-- Berlin Alexanderplatz -->
    </route>
    <route id="pt_tram_M5:1" color="190,20,20" edges="143891040#0 143891040#2 143891040#4 143891040#5 143891040#6 143891040#7 101699676#1 101699676#2 101699676#4 101699676#13 30721656#0 30721656#1 30721656#2 30721656#3 30721656#4 421641065#0 421641065#1 421641065#2 1053166657 30123145#1 30123145#2 30123145#3 803941122 23960874#3 144014234#1 144014234#4 167523653#0 167523653#1 167523653#2 22962554#1 150394036 1051100384" >
        <stop busStop="1668717159" duration="20" until="59.0"/> <!-- S Oranienburger Straße -->
        <stop busStop="963600646" duration="20" until="154.0"/> <!-- Monbijouplatz -->
        <stop busStop="1633759760" duration="20" until="269.0"/> <!-- S Hackescher Markt -->
        <stop busStop="30731481" duration="20" until="320.0"/> <!-- Spandauer Straße/Marienkirche -->
    </route>
    <route id="pt_light_rail_S2:2" color="1,138,71" edges="463462759" >
        <stop busStop="474368351" duration="20" until="77.0"/> <!-- Friedrichstraße -->
    </route>
    <route id="pt_light_rail_S2:3" color="1,138,71" edges="237751551" >
        <stop busStop="1930939368" duration="20" until="69.0"/> <!-- Friedrichstraße -->
    </route>
    <route id="pt_subway_U6:0" color="140,109,171" edges="295250361 295250353#1 295250353#2 295376548" >
        <stop busStop="8170794617" duration="20" until="50.0"/> <!-- Unter den Linden -->
        <stop busStop="3869306769" duration="20" until="113.0"/> <!-- Friedrichstraße -->
    </route>
    <route id="pt_light_rail_S3:1" color="5,90,153" edges="4471823#0 4471823#1 4471823#2 4471823#3 25946658#1 25946658#2 196844848 -25946685#1 -195397542 25946681 25946682#1 25946682#2 32590902#1 32590894#1 32590894#2 4471817#1 4471817#2 4471817#3 32590638#1 32590645 32590647#0 32590647#1 32590494#1 32590496#1" >
        <stop busStop="27412232" duration="20" until="74.0"/> <!-- Friedrichstraße -->
        <stop busStop="27411240" duration="20" until="178.0"/> <!-- Hackescher Markt -->
    </route>
    <route id="pt_subway_U6:1" color="140,109,171" edges="378659153 335043673#0 335043673#1 335043673#2 387125527 295255789" >
        <stop busStop="2792364395" duration="20" until="66.0"/> <!-- Friedrichstraße -->
        <stop busStop="8170769020" duration="20" until="131.0"/> <!-- Unter den Linden -->
    </route>
    <route id="pt_bus_265:1" color="149,39,110" edges="755551646#0" >
        <stop busStop="3867910422" duration="20" until="31.0"/> <!-- Neumannsgasse -->
    </route>
    <route id="pt_subway_U5:0" color="126,83,48" edges="248099627 942849696 942849695 248099628" >
        <stop busStop="8087330616" duration="20" until="69.0"/> <!-- Unter den Linden -->
        <stop busStop="7974955393" duration="20" until="163.0"/> <!-- Museumsinsel -->
        <stop busStop="8196661136" duration="20" until="255.0"/> <!-- Rotes Rathaus -->
    </route>
    <route id="pt_bus_245:0" color="149,39,110" edges="1151064405#1 1151064407#1 1151064407#2 1134013286 -292429063#2 -292429063#1 -292429063#0 -1151064411 1123106516 1123106898#1 158023913#1 158023913#3 22972195#2 465376239 465376255#2 190447767 190447766#1 1151064403 1151064402#0 465376254#0 465376254#3 222328410 -6228081#1 30720544#0 30720544#1 42103020#0 42103020#2 111251382#1 111251382#3 1100889498 1100824590#1 176043806#0 176043806#2 176043807#0 176043807#3" >
        <stop busStop="11178436224" duration="20" until="108.0"/> <!-- Dorotheenstraße/Friedrichstraße -->
        <stop busStop="3869306764" duration="20" until="192.0"/> <!-- S+U Friedrichstraße -->
        <stop busStop="3869306762" duration="20" until="286.0"/> <!-- Friedrichstraße/Reinhardtstraße -->
        <stop busStop="3869306759" duration="20" until="350.0"/> <!-- Deutsches Theater -->
    </route>
    <route id="pt_subway_U5:1" color="126,83,48" edges="-199425795 942849698#0 942849698#1 942849697 71326270" >
        <stop busStop="8196661137" duration="20" until="65.0"/> <!-- Rotes Rathaus -->
        <stop busStop="7974928190" duration="20" until="163.0"/> <!-- Museumsinsel -->
        <stop busStop="8090274121" duration="20" until="253.0"/> <!-- Unter den Linden -->
    </route>
    <route id="pt_tram_M5:0" color="190,20,20" edges="1051100385#0 1051100385#1 1051100385#3 1051100385#4 1051100386 150394035#1 150394035#5 150394035#6 1052827282#3 10597134#1 421641064 30721657#1 30721657#2 30721657#3 1210499523 46140385 46140379#0 46140379#1 46140379#2 46140393 101699679#0 101699679#1 101699679#2 101699679#4 101699679#12 101699679#13 1044592563#1 1044592563#2 154321040#2 154321040#3 154321040#4 154321040#5" >
        <stop busStop="4673135647" duration="20" until="153.0"/> <!-- Spandauer Straße/Marienkirche -->
        <stop busStop="1633759766" duration="20" until="247.0"/> <!-- S Hackescher Markt -->
        <stop busStop="1661927028" duration="20" until="339.0"/> <!-- Monbijouplatz -->
        <stop busStop="1862699772" duration="20" until="447.0"/> <!-- S Oranienburger Straße -->
    </route>
    <route id="pt_bus_100:0" color="149,39,110" edges="625647962 415280722 195401013#2 171826985#2 24913519#1 1144362247 541763975 4067932 339201219 541763974 61584187#1 15971197 4611699#0 4611699#1 1149417521#1 169195795#0 169195795#1 1217865061#0 1113726463 1077923225#0 882389494#1 340498988#0 188386313#1 1119935327#1 1119935543#0 1119936840#1 1119937599#1 1119937599#2 1119937599#3" >
        <stop busStop="270727260" duration="20" until="38.0"/> <!-- S+U Alexanderplatz/Memhardstraße -->
        <stop busStop="4163212867" duration="20" until="76.0"/> <!-- S+U Alexanderplatz/Memhardstraße -->
        <stop busStop="1827996417" duration="20" until="147.0"/> <!-- Spandauer Straße/Marienkirche -->
        <stop busStop="3867910420" duration="20" until="273.0"/> <!-- U Museumsinsel -->
        <stop busStop="271296293" duration="20" until="356.0"/> <!-- Staatsoper -->
        <stop busStop="272408975" duration="20" until="455.0"/> <!-- U Unter den Linden -->
        <stop busStop="271373068" duration="20" until="542.0"/> <!-- S+U Brandenburger Tor -->
    </route>
    <route id="pt_train_RB23:1" color="235,116,5" edges="72984396 32590644#1 32590651#1 32590900#1 25946666 1135947857 25946668#1 421021565#1" >
        <stop busStop="2603331683" duration="20" until="174.0"/> <!-- Berlin Friedrichstraße -->
    </route>
    <route id="pt_light_rail_S3:0" color="5,90,153" edges="72984388 32590498#1 32590501#1 32590648 32590649#0 32590649#1 32590649#2 32590640#1 32590640#2 32590653#1 32590904#1 25946685#1 25946685#2 25946678 25946662#1 25946662#2 29384521#1 29384522#1 29384522#2 29384522#3" >
        <stop busStop="1745157971" duration="20" until="79.0"/> <!-- Hackescher Markt -->
        <stop busStop="2603331695" duration="20" until="268.0"/> <!-- Friedrichstraße -->
    </route>
    <route id="pt_light_rail_S9:1" color="154,48,82" edges="4471823#0 4471823#1 4471823#2 4471823#3 25946658#1 25946658#2 196844848 -25946685#1 -195397542 25946681 25946682#1 25946682#2 32590902#1 32590894#1 32590894#2 4471817#1 4471817#2 4471817#3 32590638#1 32590645 32590647#0 32590647#1 32590494#1 32590496#1" >
        <stop busStop="27412232" duration="20" until="148.0"/> <!-- Friedrichstraße -->
        <stop busStop="27411240" duration="20" until="252.0"/> <!-- Hackescher Markt -->
    </route>
    <route id="pt_tram_M5:2" color="190,20,20" edges="1051100385#0 1051100385#1 1051100385#3 1051100385#4 1051100386 150394035#1 150394035#5 150394035#6 1052827282#3 10597134#1 421641064" >
        <stop busStop="4673135647" duration="20" until="88.0"/> <!-- Spandauer Straße/Marienkirche -->
        <stop busStop="1633759766" duration="20" until="170.0"/> <!-- S Hackescher Markt -->
    </route>
    <route id="pt_tram_M5:3" color="190,20,20" edges="803941122 23960874#3 144014234#1 144014234#4 167523653#0 167523653#1 167523653#2 22962554#1 150394036 1051100384" >
        <stop busStop="1633759760" duration="20" until="41.0"/> <!-- S Hackescher Markt -->
        <stop busStop="30731481" duration="20" until="92.0"/> <!-- Spandauer Straße/Marienkirche -->
    </route>
    <route id="pt_light_rail_S26:0" color="1,138,71" edges="237751551" >
        <stop busStop="1930939368" duration="20" until="69.0"/> <!-- Friedrichstraße -->
    </route>
    <route id="pt_light_rail_S26:1" color="1,138,71" edges="463462759" >
        <stop busStop="474368351" duration="20" until="76.0"/> <!-- Friedrichstraße -->
    </route>
    <route id="pt_train_RE2:1" color="255,230,0" edges="25386365#0 25386365#1 442921387#0 442921387#1 25946656#1 25946673#1 25946674#1 25946676 32590898#1 32590890#1 32590636#1" >
        <stop busStop="29805120" duration="20" until="110.0"/> <!-- Berlin Friedrichstraße -->
        <stop busStop="2776873647" duration="20" until="286.0"/> <!-- Berlin Alexanderplatz -->
    </route>
    <route id="pt_light_rail_S9:0" color="154,48,82" edges="72984388 32590498#1 32590501#1 32590648 32590649#0 32590649#1 32590649#2 32590640#1 32590640#2 32590653#1 32590904#1 25946685#1 25946685#2 25946678 25946662#1 25946662#2 29384521#1 29384522#1 29384522#2 29384522#3" >
        <stop busStop="1745157971" duration="20" until="131.0"/> <!-- Hackescher Markt -->
        <stop busStop="2603331695" duration="20" until="321.0"/> <!-- Friedrichstraße -->
    </route>
    <route id="pt_train_RE7:0" color="38,153,0" edges="72984396 32590644#1 32590651#1 32590900#1 25946666 1135947857 25946668#1 421021565#1" >
        <stop busStop="2603331683" duration="20" until="219.0"/> <!-- Berlin Friedrichstraße -->
    </route>
    <route id="pt_train_RB14:0" color="165,2,125" edges="25386365#0 25386365#1 442921387#0 442921387#1 25946656#1 25946673#1 25946674#1 25946676 32590898#1 32590890#1 32590636#1" >
        <stop busStop="29805120" duration="20" until="110.0"/> <!-- Berlin Friedrichstraße -->
        <stop busStop="2776873647" duration="20" until="286.0"/> <!-- Berlin Alexanderplatz -->
    </route>
    <route id="pt_train_RB14:1" color="165,2,125" edges="72984396 32590644#1 32590651#1 32590900#1 25946666 1135947857 25946668#1 421021565#1" >
        <stop busStop="2603331683" duration="20" until="252.0"/> <!-- Berlin Friedrichstraße -->
    </route>
    <route id="pt_train_RE7:1" color="38,153,0" edges="25386365#0 25386365#1 442921387#0 442921387#1 25946656#1 25946673#1 25946674#1 25946676 32590898#1 32590890#1 32590636#1" >
        <stop busStop="29805120" duration="20" until="110.0"/> <!-- Berlin Friedrichstraße -->
        <stop busStop="2776873647" duration="20" until="286.0"/> <!-- Berlin Alexanderplatz -->
    </route>
    <route id="pt_bus_147:1" color="149,39,110" edges="1127597264#1 1127596842#2 120675240#1 120675240#3 120675240#4 120675240#5 -8008608 -4611696#5 -4611696#4 -4611696#3 -23755950#1 -1127602336 -66071366#4 4773029#1 4773029#2 4773029#3 4773029#4 28251222#0 28251222#1 1171295120#1 169195795#0 169195795#1 1217865061#0 1113726463 1077923225#0 882389494#1 340498988#0 169999355#1 -11483007#2 22972195#2 465376239 465376255#2 190447767 190447766#1 1151064403 1151064402#0 465376254#0 465376254#3 222328410 -6228081#1 30720544#0 30720544#1 42103020#0 42103020#2 111251382#1 111251382#3 1100889498 1100824590#1 176043806#0 176043806#2 176043807#0 176043807#3" >
        <stop busStop="3867910423" duration="20" until="35.0"/> <!-- Neumannsgasse -->
        <stop busStop="9681836927" duration="20" until="98.0"/> <!-- Berliner Schloss -->
        <stop busStop="-3869306773" duration="20" until="174.0"/> <!-- Werderscher Markt -->
    </route>
    <route id="pt_bus_147:0" color="149,39,110" edges="-176043807#6 -176043807#0 -176043806#2 -176043806#0 -1100824590#1 -1100824590#0 -111251382#3 -111251382#2 541295978#1 1097921784#1 -541295974#0 -222328410 -465376254#3 -465376254#2 -1151064402#1 -4402228 190447768#1 195411602#1 465376240#0 195411604 11483007#0 -1119933622 461526152#1 1126234503#0 1126237668#1 1079495669#1 340498982#0 1170522567#0 251884680#0 251884680#1 -4611694#1 -1126465845 -1126465703#0 -1159156576#0 4611696#4 4611696#5 8008608 -120675240#5 -120675240#4 -120675240#3 -120675240#2 -43156728#1 -1127596842#0 -1127597264#0 -755551646#0" >
        <stop busStop="-3869306760" duration="20" until="61.0"/> <!-- Deutsches Theater -->
        <stop busStop="-3869306761" duration="20" until="131.0"/> <!-- Friedrichstraße/Reinhardtstraße -->
        <stop busStop="-3869306765" duration="20" until="240.0"/> <!-- S+U Friedrichstraße -->
        <stop busStop="-9023382187" duration="20" until="328.0"/> <!-- U Unter den Linden -->
    </route>
    <route id="pt_bus_300:0" color="149,39,110" edges="309479676 4611726#1 1132678576#0 606078065#1 1112054538 61583424#1 534588621#0 534588621#1 284493291#0 24913519#1 1144362247 541763975 4067932 339201219 541763974 61584187#1 15971197 4611699#0 4611699#1 1149417521#1 169195795#0 169195795#1 1217865061#0 1113726463 1077923225#0 882389494#1 340498988#0 188386313#1 1119935327#1 1119935543#0 24913267#1 24913267#3 326116286#0 4402014#3 326116285#4" >
        <stop busStop="3867910417" duration="20" until="58.0"/> <!-- Jüdenstraße -->
        <stop busStop="6682293818" duration="20" until="135.0"/> <!-- U Rotes Rathaus -->
        <stop busStop="3867910420" duration="20" until="228.0"/> <!-- U Museumsinsel -->
        <stop busStop="271296293" duration="20" until="309.0"/> <!-- Staatsoper -->
        <stop busStop="272408975" duration="20" until="405.0"/> <!-- U Unter den Linden -->
    </route>
    <route id="pt_bus_300:1" color="149,39,110" edges="-326116285#4 -4402014#3 -326116286#1 -24913267#3 -24913267#2 342968607#1 1170522572#0 461526152#1 1126234503#0 1126237668#1 1079495669#1 340498982#0 1170522567#0 251884680#0 251884680#1 1126246695#1 339201217 1126244314#0 1126244314#1 54048862#2 831694400#0 831694400#1 23013165 4611698 202156994#0 606078072#1 -534588621#1 -534588621#0 606078071#0 61583423#1 -751595930 82654059#0 82654059#1 1132678575#1 1133457766" >
        <stop busStop="-4692172068" duration="20" until="37.0"/> <!-- Behrenstraße/Wilhelmstraße -->
        <stop busStop="3869306771" duration="20" until="173.0"/> <!-- U Unter den Linden -->
        <stop busStop="3870475228" duration="20" until="269.0"/> <!-- Staatsoper -->
        <stop busStop="3867910421" duration="20" until="350.0"/> <!-- U Museumsinsel -->
        <stop busStop="-6744165042" duration="20" until="424.0"/> <!-- U Rotes Rathaus -->
    </route>
    <route id="pt_tram_M1:0" color="190,20,20" edges="144014230#3 207364191#1 207364191#2 144014242#1 167272512#0 167272512#1 167272512#2 167272512#3 167272512#4 167272512#5 167272512#6 167272512#7 167272512#9 195411594#1 195411594#2 195411594#3 143891040#0 143891040#2 143891040#4 143891040#5 143891040#6 143891040#7 101699676#1 101699676#2 101699676#4 101699676#13 30721656#0 30721656#1 30721656#2 30721656#3 30721656#4 421641065#0 421641065#1 421641065#2 28341062#0 28341062#1 421641064 30721657#1 30721657#2 30721657#3 46140383#0 46140383#1 46140383#2 143931935#0 143931935#1 153537606#1 153537606#2 153537606#3 153537606#4" >
        <stop busStop="247603398" duration="20" until="40.0"/> <!-- Am Kupfergraben -->
        <stop busStop="1673526976" duration="20" until="128.0"/> <!-- Georgenstraße/Am Kupfergraben -->
        <stop busStop="1823298700" duration="20" until="213.0"/> <!-- S+U Friedrichstraße -->
        <stop busStop="30731700" duration="20" until="548.0"/> <!-- U Oranienburger Tor -->
        <stop busStop="1668717159" duration="20" until="606.0"/> <!-- S Oranienburger Straße -->
        <stop busStop="963600646" duration="20" until="731.0"/> <!-- Monbijouplatz -->
        <stop busStop="1633759766" duration="20" until="826.0"/> <!-- S Hackescher Markt -->
        <stop busStop="1662153916" duration="20" until="946.0"/> <!-- U Weinmeisterstraße/Gipsstraße -->
    </route>
    <route id="pt_tram_M1:1" color="190,20,20" edges="144014230#3 207364191#1 207364191#2 144014242#1 167272512#0 167272512#1 167272512#2 167272512#3 167272512#4 167272512#5 167272512#6 167272512#7 167272512#9 195411594#1 195411594#2 195411594#3 143891040#0 143891040#2 143891040#4 143891040#5 143891040#6 143891040#7 101699676#1 101699676#2 101699676#4 101699676#13 30721656#0 30721656#1 30721656#2 30721656#3 30721656#4 421641065#0 421641065#1 421641065#2 28341062#0 28341062#1 421641064 30721657#1 30721657#2 30721657#3 46140383#0 46140383#1 46140383#2 143931935#0 143931935#1 153537606#1 153537606#2 153537606#3 153537606#4" >
        <stop busStop="247603398" duration="20" until="72.0"/> <!-- Am Kupfergraben -->