<?xml version="1.0" encoding="UTF-8"?>

<!-- generated on 2024-06-24 12:29:46.073225 by osmWebWizard.py v1_19_0+0000-baa66a0f364
<configuration>
    <net-file value="C:\Users\Jaime\Sumo\2024-06-24-12-29-34\osm.net.xml.gz"/>
    <ptlines-file value="C:\Users\Jaime\Sumo\2024-06-24-12-29-34\osm_ptlines.xml"/>
    <ptstops-file value="C:\Users\Jaime\Sumo\2024-06-24-12-29-34\osm_stops.add.xml"/>
    <output-file value="C:\Users\Jaime\Sumo\2024-06-24-12-29-34\osm_pt.rou.xml"/>
    <stopinfos-file value="C:\Users\Jaime\Sumo\2024-06-24-12-29-34\stopinfos.xml"/>
    <routes-file value="C:\Users\Jaime\Sumo\2024-06-24-12-29-34\vehroutes.xml"/>
    <trips-file value="C:\Users\Jaime\Sumo\2024-06-24-12-29-34\trips.trips.xml"/>
    <end value="2000.0"/>
    <min-stops value="0"/>
    <extend-to-fringe value="True"/>
    <random-begin value="True"/>
    <seed value="42"/>
    <ignore-errors value="True"/>
    <vtype-prefix value="pt_"/>
    <verbose value="True"/>
</configuration>
-->

<routes xmlns:xsi="http://www.w3.org/2001/XMLSchema-instance" xsi:noNamespaceSchemaLocation="http://sumo.dlr.de/xsd/routes_file.xsd">
    <vType id="pt_bus" vClass="bus"/>
    <vType id="pt_tram" vClass="tram"/>
    <vType id="pt_train" vClass="rail"/>
    <vType id="pt_subway" vClass="rail_urban"/>
    <vType id="pt_light_rail" vClass="rail_urban"/>
    <vType id="pt_monorail" vClass="rail_urban"/>
    <vType id="pt_trolleybus" vClass="bus"/>
    <vType id="pt_minibus" vClass="bus"/>
    <vType id="pt_share_taxi" vClass="taxi"/>
    <vType id="pt_aerialway" vClass="rail_urban" length="2.5" width="2" personCapacity="4"/>
    <vType id="pt_ferry" vClass="ship"/>
    <route id="pt_bus_133:1" color="0,114,206" edges="651525544#0 104799919#0 839411286#1 30993228#1 30993228#2" >
    </route>
    <route id="pt_bus_146:0" color="0,114,206" edges="269291945#2" >
        <stop busStop="3428239936" duration="20" until="36.0"/> <!-- None -->
    </route>
    <route id="pt_train_MD_18061:0" edges="119181079#0 119181079#1" >
        <stop busStop="1493565877" duration="20" until="90.0"/> <!-- Príncipe Pío -->
    </route>
    <route id="pt_bus_15:1" color="0,114,206" edges="813598084" >
        <stop busStop="21968139" duration="20" until="42.0"/> <!-- None -->
    </route>
    <route id="pt_bus_133:0" color="0,114,206" edges="554359457 239499978#1 -82280716#1 -82280716#0 7642939#0 7642939#1 7642939#2 7642939#3 7642939#4 7642939#5 7642939#7 -651525544#0" >
        <stop busStop="2472773304" duration="20" until="35.0"/> <!-- None -->
    </route>
    <route id="pt_bus_138:1" color="0,114,206" edges="4334161 43410327#0 71808951 4308590#0 4308590#3 4308590#4 71808941 31000689#0 31000689#2 31000689#3" >
    </route>
    <route id="pt_bus_150:0" color="0,114,206" edges="1057894241#0 626418867#1 43759793#0 43759793#1 43759793#2 43759793#3 431767100#0 431767100#1 4346299#0 4346299#1 4346299#4 4346299#5 321307747 242547871 131431688#0" >
        <stop busStop="5006352930" duration="20" until="40.0"/> <!-- None -->
    </route>
    <route id="pt_train_RE_18009:0" edges="119181079#0 119181079#1" >
        <stop busStop="1493565877" duration="20" until="124.0"/> <!-- Príncipe Pío -->
    </route>
    <route id="pt_bus_15:0" color="0,114,206" edges="302579019#0 302579019#1 762216476#0 112538828#0 112538828#1 112538828#2 112538828#3 112538828#6 243990688#0 168404659 663316135 46098088#0 46098088#1 908546756#1 417019353 511241905#0 7971500 813598084" >
        <stop busStop="8423213265" duration="20" until="31.0"/> <!-- None -->
    </route>
    <route id="pt_bus_138:0" color="0,114,206" edges="293722999 293723002#0 4308591 31000691#0 71808949#0 71808949#1 71808949#3 44535822 44535820 542325013#0 542325013#1" >
        <stop busStop="8272206383" duration="20" until="50.0"/> <!-- None -->
    </route>
    <route id="pt_bus_147:0" color="0,114,206" edges="293712003#0 293712003#1 293712003#3 293712003#4 30993228#1 30993228#2 554359457 239499978#1 45757393 4487153 31053391 269291945#0 269291945#1 269291945#2" >
    </route>
    <route id="pt_bus_150:1" color="0,114,206" edges="907102748#0 907102748#1 131443348#0 4349010 511895636 1260545323#0 1260545323#1 1260545324 7971496#0 7971496#1 7971496#2 7971496#3 7971496#4 43759728#0 43759728#2 1057894241#0" >
        <stop busStop="5006352930" duration="20" until="126.0"/> <!-- None -->
    </route>
    <route id="pt_bus_17:1" color="0,114,206" edges="907553665 4263086#0 41699453#1 41699453#2 398751337#0 398751337#1 398751337#3 690824245 130468268#1 -909029029#2 -909029029#0 -4346292#4" >
        <stop busStop="5342725022" duration="20" until="35.0"/> <!-- None -->
    </route>
    <route id="pt_train_MD_18063:0" edges="119181079#0 119181079#1" >
        <stop busStop="1493565877" duration="20" until="158.0"/> <!-- Príncipe Pío -->
    </route>
    <route id="pt_bus_17:0" color="0,114,206" edges="4346292#0 4346292#6 909029029#1 -130468268#1 -690824245 -398751337#3 -398751337#2 -398751337#0 -41699453#2 -41699453#1 41699477#1 7732075 1275422412" >
        <stop busStop="8422641941" duration="20" until="50.0"/> <!-- None -->
    </route>
    <route id="pt_bus_33:0" color="0,114,206" edges="293722999 293723002#0 44535825#0" >
        <stop busStop="8272206383" duration="20" until="56.0"/> <!-- None -->
    </route>
    <route id="pt_bus_147:1" color="0,114,206" edges="269291945#2 -335713716#0 -269291945#1 -269291945#0 45757392 -239499978#1 -239499978#0 -30993228#2 -30993228#1 -293712003#4 -293712003#3 -293712003#2 -293712003#0" >
        <stop busStop="5321927322" duration="20" until="41.0"/> <!-- None -->
    </route>
    <route id="pt_bus_44:1" color="0,114,206" edges="651525544#0 104799919#0 839411286#1 30993228#1 30993228#2 554359457" >
    </route>
    <route id="pt_bus_14:0" color="0,114,206" edges="562027283 562027284#1 302580240#0 302580240#1 243991597 243991596#0 243991596#1 911013768" >
        <stop busStop="8433060766" duration="20" until="167.0"/> <!-- None -->
    </route>
    <route id="pt_bus_18:0" color="0,114,206" edges="7732075 1275422412 907553665 4263086#0 41699453#1 41699453#2 398751337#0 398751337#1 398751337#3 690824245 130468268#1 -909029029#2 -909029029#0 -4346292#4" >
        <stop busStop="1437056478" duration="20" until="41.0"/> <!-- None -->
    </route>
    <route id="pt_bus_18:1" color="0,114,206" edges="4346292#0 4346292#6 909029029#1 -130468268#1 -690824245 -398751337#3 -398751337#2 -398751337#0 -41699453#2 -41699453#1 41699477#1 7732075" >
        <stop busStop="8422641941" duration="20" until="67.0"/> <!-- None -->
    </route>
    <route id="pt_bus_26:1" color="0,114,206" edges="554357604#0 70955584#0 70955584#1 70955584#2 4328769 423638485 686213118#0 423232043 48345480#0 48345480#2 1275083958#0 82567675#0 82567675#3" >
        <stop busStop="5350038443" duration="20" until="34.0"/> <!-- None -->
    </route>
    <route id="pt_bus_44:0" color="0,114,206" edges="554359457 239499978#1 -82280716#1 -82280716#0 7642939#0 7642939#1 7642939#2 7642939#3 7642939#4 7642939#5 7642939#7 -651525544#0" >
        <stop busStop="5350055328" duration="20" until="39.0"/> <!-- None -->
    </route>
    <route id="pt_subway_L10:1" color="1,83,150" edges="1054025304" >
        <stop busStop="5310093880" duration="20" until="46.0"/> <!-- Príncipe Pío -->
        <stop busStop="5310093878" duration="20" until="127.0"/> <!-- Plaza de España -->
        <stop busStop="5310093877" duration="20" until="205.0"/> <!-- Tribunal -->
        <stop busStop="7559826150" duration="20" until="267.0"/> <!-- Alonso Martínez -->
    </route>
    <route id="pt_bus_35:1" color="0,114,206" edges="41699477#1 41699518#0 31262320#1 31262320#2 4328609 4328605#0 4328605#1 398751337#3 690824245 130468268#1 -909029029#2 -909029029#0 -4346292#4" >
        <stop busStop="5351138581" duration="20" until="42.0"/> <!-- None -->
    </route>
    <route id="pt_bus_146:1" color="0,114,206" edges="302579020#0 302579020#1 885687791 907102747 762216476#0 112538828#0 112538828#1 112538828#2 112538828#3 112538828#6 4328840 651543114#1 -419119406#1 -419119406#0 -32597088 43410312#0 43410312#1 651613048#0 423000381 936883629 155551743#0 155551743#1 155551743#2 1238944954 651533184#0 -335713716#0" >
        <stop busStop="3068279551" duration="20" until="31.0"/> <!-- None -->
    </route>
    <route id="pt_bus_5:1" color="0,114,206" edges="813598084" >
        <stop busStop="21968139" duration="20" until="43.0"/> <!-- None -->
    </route>
    <route id="pt_bus_25:0" color="0,114,206" edges="293722999 293723002#0 4308591 31000691#0 71808949#0 71808949#1 71808949#3 44535822 44535820 542325013#0 542325013#1" >
        <stop busStop="8272206383" duration="20" until="50.0"/> <!-- None -->
    </route>
    <route id="pt_bus_35:0" color="0,114,206" edges="4346292#0 4346292#6 909029029#1 -130468268#1 -690824245 -398751337#3 -398751337#2 -398751337#0 -41699453#2 -41699453#1 41699477#1" >
        <stop busStop="8422641941" duration="20" until="82.0"/> <!-- None -->
    </route>
    <route id="pt_bus_23:1" color="0,114,206" edges="7732075 1275422412 907553665 4263086#0 41699453#1 41699453#2 398751337#0 398751337#1 398751337#3 690824245 130468268#1 -909029029#2 -909029029#0 -4346292#4" >
        <stop busStop="1437056478" duration="20" until="48.0"/> <!-- None -->
    </route>
    <route id="pt_bus_36:0" color="0,114,206" edges="40933501#0 40933501#1 32480293#1 32480293#2 32480293#3 32480293#4 32480293#5 32480293#6" >
        <stop busStop="8423406977" duration="20" until="81.0"/> <!-- None -->
    </route>
    <route id="pt_bus_148:1" color="0,114,206" edges="7732896 1137958525#0 1137958525#1 1137958526#0 387848379#1 1137958527 4264184#0 4264184#1 4264184#2 355939668 355939669#0 355939669#1 355939669#2 355939669#3 355939669#4 355939669#5 107467881#0 71634922#0 71634922#1 71634922#2 4518851#0 4518851#1 435012914#1 7971925#0 7971925#1 31021779#0 31021779#3 31021779#4 31021779#5 31021779#6 17760812#0 17760812#1 17760812#2 17760808 79483259#1 79483259#2 767647778#0 443396463 269291945#0 269291945#1 269291945#2" >
        <stop busStop="5970506960" duration="20" until="37.0"/> <!-- Pza. San Francisco - Bailén -->
    </route>
    <route id="pt_bus_23:0" color="0,114,206" edges="4346292#0 4346292#6 909029029#1 -130468268#1 -690824245 -398751337#3 -398751337#2 -398751337#0 -41699453#2 -41699453#1 41699477#1 7732075" >
        <stop busStop="8422641941" duration="20" until="83.0"/> <!-- None -->
    </route>
    <route id="pt_bus_31:1" color="0,114,206" edges="907553665 4519456#2 168406442#1 49016411#0 -7972312#4 -7972312#3 -7972312#2 -7972312#1 -7972312#0 -31309326#4 -31309326#3 -31309326#2 -31309326#1 -689780380 -44885764#6 -44885764#5 -44885764#4 -44885764#3 -44885764#2 -44885764#1 -45316487#2 -45316487#0 -40933501#1 -40933501#0" >
        <stop busStop="8427149777" duration="20" until="38.0"/> <!-- None -->
    </route>
    <route id="pt_train_C-4:0" color="0,40,156" edges="695991680 695991678" >
        <stop busStop="3660257614" duration="20" until="148.0"/> <!-- Sol -->
    </route>
    <route id="pt_bus_26:0" color="0,114,206" edges="-1275083956#1 -82567675#2 -320668245#1 4328795#0 4328795#1 4328795#2 686213116#0 423231391#0 423231391#4 423231391#5 423231391#6 685983423 7732078 70955486 1275422405 1275422411#0 1275422411#1 31262334#0 31262349#1" >
        <stop busStop="-8423356513" duration="20" until="54.0"/> <!-- None -->
    </route>
    <route id="pt_bus_60:1" color="0,114,206" edges="4346292#0 4346292#6" >
        <stop busStop="8440470099" duration="20" until="76.0"/> <!-- None -->
    </route>
    <route id="pt_bus_1:1" color="0,114,206" edges="302579020#0 302579020#1 885687791 907102747 762216476#0 112538828#0 112538828#1 112538828#2 112538828#3 112538828#6 4328840 651543114#1 -419119406#1 -419119406#0 -32597088 43410312#0 43410312#1 651613048#0 423000381 936883629 155551743#0 155551743#1 155551743#2 1238944954 651533184#0 -335713716#0 -269291945#1 -269291945#0 45757392 -82280716#1 -82280716#0 7642939#0 7642939#1 7642939#2 7642939#3 7642939#4 7642939#5 7642939#7 -651525544#0" >
        <stop busStop="3068279551" duration="20" until="31.0"/> <!-- None -->
    </route>
    <route id="pt_bus_60:0" color="0,114,206" edges="7732894#0 7732894#1 7732894#3 896274305 5927085#0 5927797#1 5927797#2 -131451861 130468268#1 -909029029#2 -909029029#0" >
        <stop busStop="8440470083" duration="20" until="45.0"/> <!-- None -->
    </route>
    <route id="pt_bus_25:1" color="0,114,206" edges="4334161 43410327#0 71808951 4308590#0 4308590#3 4308590#4 71808941 31000689#0 31000689#2 31000689#3" >
        <stop busStop="8235796741" duration="20" until="102.0"/> <!-- None -->
        <stop busStop="1439703616" duration="20" until="133.0"/> <!-- Jardines de Sabatini -->
        <stop busStop="8272206405" duration="20" until="199.0"/> <!-- None -->
    </route>
    <route id="pt_bus_39:1" color="0,114,206" edges="293722999 293723002#0 4308591 31000691#0 71808949#0 71808949#1 71808949#3 44535822 44535820 542325013#0 542325013#1" >
        <stop busStop="8272206383" duration="20" until="68.0"/> <!-- None -->
    </route>
    <route id="pt_bus_M1:1" color="0,114,206" edges="813598084" >
        <stop busStop="21968139" duration="20" until="43.0"/> <!-- None -->
    </route>
    <route id="pt_bus_52:1" color="0,114,206" edges="30676408 31261348#0 31261348#1 43759728#0 43759728#2 1057894241#0 626418867#1 43759793#0 43759793#1 43759793#2 43759793#3 431767100#0 431767100#1 4346299#0 4346299#1 4346299#4 4346299#5 321307747 242547871 131431688#0" >
        <stop busStop="339242703" duration="20" until="31.0"/> <!-- Sevilla - Pza. Canalejas -->
    </route>
    <route id="pt_bus_32:1" color="0,114,206" edges="-1275083956#1 -82567675#2 -320668245#1 4328795#0 4328795#1 4328795#2 686213116#0 423231391#0 423231391#4 423231391#5 423231391#6 685983423 7732078" >
        <stop busStop="-8423356513" duration="20" until="76.0"/> <!-- None -->
    </route>
    <route id="pt_bus_32:0" color="0,114,206" edges="7732078 70955486 1275422405 1275422411#0 1275422411#1 31262334#0 31262349#1 554357604#0 70955584#0 70955584#1 70955584#2 4328769 423638485 686213118#0 423232043 48345480#0 48345480#2 1275083958#0 82567675#0 82567675#3" >
        <stop busStop="1493715148" duration="20" until="38.0"/> <!-- None -->
    </route>
    <route id="pt_bus_148:0" color="0,114,206" edges="269291945#2 -335713716#0 -269291945#1 -269291945#0 335717550 4487153 335717551#0 7971933 17760817 7971930 31021778#0 31021778#1 31021779#5 31021779#6 17760812#0 17760812#1 17760812#2 7971935 7971921#0 7971922 31053363#0 -107467881#0 -107467873#0 -355939669#4 -355939669#3 -355939669#2 -355939669#1 -355939669#0 -355939668 -4264184#2 -4264184#1 -4264184#0 7726329#0 4519460#0 1137958509 686216025 388098819#0 388098819#1 1137958510 7732898" >
        <stop busStop="8440634409" duration="20" until="77.0"/> <!-- None -->
    </route>
    <route id="pt_bus_14:1" color="0,114,206" edges="907102748#0 907102748#1 131443348#0 4349010 511895636 1260545323#0 1260545323#1 1260545324 44288721#1 44288721#2 262951802#0 30674611 686214706#0 686214706#1 686214706#2 686214706#3 262951801#0 262951801#1 262951801#2 262951801#3 262951801#5" >
        <stop busStop="8440634349" duration="20" until="60.0"/> <!-- None -->
    </route>
    <route id="pt_bus_27:1" color="0,114,206" edges="907102748#0 907102748#1 131443348#0 4349010 511895636 1260545323#0 1260545323#1 1260545324 44288721#1 44288721#2 262951802#0 30674611 686214706#0 686214706#1 686214706#2 686214706#3 262951801#0 262951801#1 262951801#2 262951801#3 262951801#5" >
        <stop busStop="8440634349" duration="20" until="59.0"/> <!-- None -->
    </route>
    <route id="pt_bus_34:0" color="0,114,206" edges="44288719#1 1260545323#0 1260545323#1 1260545324 44288721#1 44288721#2 262951802#0 30674611 686214706#0 686214706#1 686214706#2 686214706#3 262951801#0 262951801#1 262951801#2 262951801#3 262951801#5" >
        <stop busStop="5342725021" duration="20" until="37.0"/> <!-- None -->
    </route>
    <route id="pt_bus_37:0" color="0,114,206" edges="907102748#0 907102748#1 131443348#0 4349010 511895636 1260545323#0 1260545323#1 1260545324 44288721#1 44288721#2 262951802#0 30674611 686214706#0 686214706#1 686214706#2 686214706#3 262951801#0 262951801#1 262951801#2 262951801#3 262951801#5" >
        <stop busStop="8440634349" duration="20" until="61.0"/> <!-- None -->
    </route>
    <route id="pt_bus_31:0" color="0,114,206" edges="40933501#0 40933501#1 45316487#0 45316487#1 44885764#1 44885764#2 44885764#3 44885764#4 44885764#5 44885764#6 689780380 31309326#0 31309326#2 31309326#3 31309326#4 7972312#0 7972312#1 7972312#2 7972312#3 7972312#4 -49016411#1 -168406442#2 7732076#0 7732076#1 41699477#1 7732075 1275422412 907553665" >
        <stop busStop="8423406967" duration="20" until="42.0"/> <!-- None -->
    </route>
    <route id="pt_bus_51:0" color="0,114,206" edges="302579018#0 302579018#1 907102747 762216476#0 112538828#0 112538828#1 112538828#2 112538828#3 112538828#6 243990688#0 168404659 663316135 46098088#0 46098088#1 908546756#1 417019353 984759713#1" >
        <stop busStop="2506473215" duration="20" until="34.0"/> <!-- None -->
    </route>
    <route id="pt_bus_1:0" color="0,114,206" edges="651525544#0 104799919#0 839411286#1 30993228#1 30993228#2 554359457 239499978#1 45757393 4487153 31053391 269291945#0 269291945#1 269291945#2 490391709#0 -1238944954 -155551743#2 -155551743#1 -155551743#0 -936883629 -423000381 -651613048#0 -43410312#1 -43410312#0 32597088 419119406#0 419119406#1 -651543114#1 804457302 46098085#0 46098085#1 4346299#0 4346299#1 4346299#4 4346299#5 321307747 242547871 131431688#0" >
    </route>
    <route id="pt_bus_5:0" color="0,114,206" edges="907102748#0 907102748#1 4346298#0 112538828#0 112538828#1 112538828#2 112538828#3 112538828#6 243990688#0 168404659 663316135 46098088#0 46098088#1 908546756#1 417019353 511241905#0 7971500 813598084" >
        <stop busStop="21968139" duration="20" until="162.0"/> <!-- None -->
    </route>
    <route id="pt_bus_3:1" color="0,114,206" edges="293712003#0 293712003#1 293712003#3 293712003#4 30993228#1 30993228#2 554359457 239499978#1 45757393 4487153 335717551#0 7971933 17760817 7971930 31021778#0 31021778#1 31021779#5 31021779#6 17760812#0 17760812#1 17760812#2 7971935 7971921#0 7971922 31053363#0 -107467881#0 -107467873#0 -355939669#4 -355939669#3 -355939669#2 -355939669#1 -355939669#0 -355939668 -4264184#2 -4264184#1 -4264184#0 7726329#0 4519460#0 1137958509 686216025 388098819#0 388098819#1 1137958510 7732898" >
    </route>
    <route id="pt_bus_51:1" color="0,114,206" edges="984759713#1 7642926#1 7642926#2 335825753#2 1287224511#0 -651543114#1 804457302 46098085#0 46098085#1 4346299#0 4346299#1 4346299#4 4346299#5 321307747 242547871 131431688#0" >
        <stop busStop="9104252079" duration="20" until="42.0"/> <!-- None -->
    </route>
    <route id="pt_bus_52:0" color="0,114,206" edges="302579018#0 302579018#1 907102747 762216476#0 112538828#0 112538828#1 112538828#2 112538828#3 112538828#6 243990688#0 168404659 663316135 46098088#0 46098088#1 908546756#1 417019353 511241905#0 7971500 813598084 7971499" >
        <stop busStop="2506473215" duration="20" until="35.0"/> <!-- None -->
    </route>
    <route id="pt_bus_39:0" color="0,114,206" edges="4334161 43410327#0 71808951 4308590#0 4308590#3 4308590#4 71808941 31000689#0 31000689#2 31000689#3" >
        <stop busStop="8235796741" duration="20" until="118.0"/> <!-- None -->
        <stop busStop="1439703616" duration="20" until="149.0"/> <!-- Jardines de Sabatini -->
        <stop busStop="8272206405" duration="20" until="225.0"/> <!-- None -->
    </route>
    <route id="pt_bus_27:0" color="0,114,206" edges="562027283 562027284#1 302580240#0 302580240#1 243991597 243991596#0 243991596#1 911013768" >
        <stop busStop="8433060766" duration="20" until="284.0"/> <!-- None -->
    </route>
    <route id="pt_bus_62:1" color="0,114,206" edges="293722999 293723002#0 4308591 31000691#0 71808949#0 71808949#1 71808949#3 44535822 673102680 26631682" >
        <stop busStop="8272206383" duration="20" until="48.0"/> <!-- None -->
    </route>
    <route id="pt_bus_2:0" color="0,114,206" edges="302579020#0 302579020#1 885687791 907102747 762216476#0 112538828#0 112538828#1 112538828#2 112538828#3 112538828#6 4328840 651543114#1 -419119406#1 -419119406#0 -32597088 43410312#0 43410312#1 651613048#0 423000381 936883629 155551743#0 155551743#1 155551743#2 1238944954 651533184#0 -335713716#0 -269291945#1 -269291945#0 45757392 -82280716#1 -82280716#0 7642939#0 7642939#1 7642939#2 7642939#3 7642939#4 7642939#5 7642939#7 -651525544#0" >
        <stop busStop="3068279551" duration="20" until="31.0"/> <!-- None -->
    </route>
    <route id="pt_bus_53:1" color="0,114,206" edges="30676408 31261348#0 31261348#1 43759728#0 43759728#2 1057894241#0 626418867#1 43759793#0 43759793#1 43759793#2 43759793#3 431767100#0 431767100#1 4346299#0 4346299#1 4346299#4 4346299#5 321307747 242547871 131431688#0" >
        <stop busStop="339242703" duration="20" until="31.0"/> <!-- Sevilla - Pza. Canalejas -->
    </route>
    <route id="pt_bus_2:1" color="0,114,206" edges="651525544#0 104799919#0 839411286#1 30993228#1 30993228#2 554359457 239499978#1 45757393 4487153 31053391 269291945#0 269291945#1 269291945#2 490391709#0 -1238944954 -155551743#2 -155551743#1 -155551743#0 -936883629 -423000381 -651613048#0 -43410312#1 -43410312#0 32597088 419119406#0 419119406#1 -651543114#1 804457302 46098085#0 46098085#1 4346299#0 4346299#1 4346299#4 4346299#5 321307747 242547871 131431688#0" >
    </route>
    <route id="pt_bus_6:1" color="0,114,206" edges="-1275083956#1 -82567675#2 -320668245#1 4328795#0 4328795#1 4328795#2 686213116#0 423231391#0 423231391#4 423231391#5 423231391#6 685983423 7732078" >
        <stop busStop="-8423356513" duration="20" until="52.0"/> <!-- None -->
    </route>
    <route id="pt_bus_34:1" color="0,114,206" edges="562027283 562027284#1 302580240#0 302580240#1 243991597 243991596#0 243991596#1 911013768" >
        <stop busStop="8433060766" duration="20" until="294.0"/> <!-- None -->
    </route>
    <route id="pt_bus_9:0" color="0,114,206" edges="302579020#0 302579020#1 885687791 907102747 762216476#0 112538828#0 112538828#1 112538828#2 112538828#3 112538828#6 243990688#0 168404659 663316135 46098088#0 46098088#1" >
        <stop busStop="8235796758" duration="20" until="37.0"/> <!-- None -->
    </route>
    <route id="pt_bus_53:0" color="0,114,206" edges="302579018#0 302579018#1 907102747 762216476#0 112538828#0 112538828#1 112538828#2 112538828#3 112538828#6 243990688#0 168404659 663316135 46098088#0 46098088#1 908546756#1 417019353 511241905#0 7971500 813598084 7971499" >
        <stop busStop="2506473215" duration="20" until="34.0"/> <!-- None -->
    </route>
    <route id="pt_bus_9:1" color="0,114,206" edges="46098088#1 908546756#1 417019353 511241905#0 7971500 813598084 1289077480 7726294 43759728#2 1057894241#0 626418867#1 43759793#0 43759793#1 43759793#2 43759793#3 431767100#0 431767100#1 4346299#0 4346299#1 4346299#4 4346299#5 321307747 242547871 131431688#0" >
        <stop busStop="2673249151" duration="20" until="38.0"/> <!-- Alcalá - Gran Vía -->
    </route>
    <route id="pt_bus_20:0" color="0,114,206" edges="813598084" >
        <stop busStop="21968139" duration="20" until="42.0"/> <!-- None -->
    </route>
    <route id="pt_bus_6:0" color="0,114,206" edges="7732078 70955486 1275422405 1275422411#0 1275422411#1 31262334#0 31262349#1 554357604#0 70955584#0 70955584#1 70955584#2 4328769 423638485 686213118#0 423232043 48345480#0 48345480#2 1275083958#0 82567675#0 82567675#3" >
        <stop busStop="1493715148" duration="20" until="74.0"/> <!-- None -->
    </route>
    <route id="pt_bus_65:0" color="0,114,206" edges="7732078 70955486 1275422405 1275422409 31262321#0 31262321#1 31262321#2 1275422412 907553665 4519456#2 168406442#1 49016411#0 -7972312#4 -7972312#3 -7972312#2 -7972312#1 -7972312#0 -31309326#4 -31309326#3 -31309326#2 -31309326#1 -689780380 -44885764#6 -44885764#5 -44885764#4 -44885764#3 -44885764#2 -44885764#1 -45316487#2 -45316487#0 -40933501#1 -40933501#0" >
        <stop busStop="1493715148" duration="20" until="37.0"/> <!-- None -->
    </route>
    <route id="pt_train_C-7:0" color="222,1,24" edges="1067764157" >
        <stop busStop="26080642" duration="20" until="31.0"/> <!-- Príncipe Pío Vía 1 -->
    </route>
    <route id="pt_bus_M1:0" color="0,114,206" edges="686216023 4328608 4328607 -41699453#2 -41699453#1 41699477#1 41699518#0 31262349#1 554357604#0 7642979#0 7642979#2 43626132 102865404#0 102865404#1 4328790#1 4328790#2 4328790#3 4328790#4 4328790#5 4328790#6 31261348#0 31261348#1 43759728#0 43759728#2 1057894241#0 626418867#1 1286414023 43759788 417019353 511241905#0 7971500 813598084" >
        <stop busStop="8423406949" duration="20" until="44.0"/> <!-- None -->
    </route>
    <route id="pt_bus_50:0" color="0,114,206" edges="40933501#0 40933501#1 45316487#0 45316487#1 44885764#1 44885764#2 44885764#3 44885764#4 44885764#5 44885764#6 689780380 31309326#0 31309326#2 31309326#3 31309326#4 7972312#0 7972312#1 7972312#2 7972312#3 7972312#4 -49016411#1 -168406442#2 7732076#0 7732076#1 41699477#1 41699518#0 31262349#1 554357604#0 7642979#0 7642979#2 556954611#0 7732078 429530691#0 4519453 406007906 1275419913#0 1275419913#1" >
        <stop busStop="8423406967" duration="20" until="42.0"/> <!-- None -->
    </route>
    <route id="pt_bus_74:1" color="0,114,206" edges="651525544#0 104799919#0 839411286#1 30993228#1 30993228#2 554359457 239499978#1 45757393 4487153 31053391 269291945#0 269291945#1 269291945#2 490391709#0 -1238944954 -155551743#2 -155551743#1 -155551743#0 -936883629 -423000381 -651613048#0 -43410312#1 -43410312#0 32597088 419119406#0 419119406#1 -651543114#1 804457302 46098085#0 46098085#1 4346299#0 4346299#1 4346299#4 4346299#5 321307747 242547871 131431688#0" >
    </route>
    <route id="pt_bus_C1:0" color="0,114,206" edges="7648748 -1184617809 -31000487 -685984978#1 -26674010#1 -26674010#0 7732089#0 689777341 26673998 355939670 -49016394 -7648762#1 -7648762#0 7726327 627773366 4319471 43410332#0 1008751312 542325013#0 542325013#1" >
        <stop busStop="-8473691223" duration="20" until="79.0"/> <!-- None -->
    </route>
    <route id="pt_bus_C2:0" color="0,114,206" edges="4334161 43410327#0 26631680#1 388101134 7726328 7648762#0 7648762#1 49016394 7732088 7732086 -7732089#0 26674010#0 26674010#1 685984978#0 31000487 1184617809 130757787#2 1010800836" >
    </route>
    <route id="pt_bus_74:0" color="0,114,206" edges="302579020#0 302579020#1 885687791 907102747 762216476#0 112538828#0 112538828#1 112538828#2 112538828#3 112538828#6 4328840 651543114#1 -419119406#1 -419119406#0 -32597088 43410312#0 43410312#1 651613048#0 423000381 936883629 155551743#0 155551743#1 155551743#2 1238944954 651533184#0 -335713716#0 -269291945#1 -269291945#0 45757392 -82280716#1 -82280716#0 7642939#0 7642939#1 7642939#2 7642939#3 7642939#4 7642939#5 7642939#7 -651525544#0" >
        <stop busStop="3068279551" duration="20" until="31.0"/> <!-- None -->
    </route>
    <route id="pt_bus_50:1" color="0,114,206" edges="1275419913#1 34095411#0 34095411#1 34095411#2 66833793#0 66833793#1 66833793#2 66833793#3 32044942#0 32044942#1 4519456#2 168406442#1 49016411#0 -7972312#4 -7972312#3 -7972312#2 -7972312#1 -7972312#0 -31309326#4 -31309326#3 -31309326#2 -31309326#1 -689780380 -44885764#6 -44885764#5 -44885764#4 -44885764#3 -44885764#2 -44885764#1 -45316487#2 -45316487#0 32480293#1 32480293#2 32480293#3 32480293#4 32480293#5 32480293#6" >
        <stop busStop="8423406988" duration="20" until="31.0"/> <!-- None -->
    </route>
    <route id="pt_bus_65:1" color="0,114,206" edges="40933501#0 40933501#1 45316487#0 45316487#1 44885764#1 44885764#2 44885764#3 44885764#4 44885764#5 44885764#6 689780380 31309326#0 31309326#2 31309326#3 31309326#4 7972312#0 7972312#1 7972312#2 7972312#3 7972312#4 -49016411#1 -168406442#2 7732076#0 7732076#1 41699477#1 41699518#0 31262349#1 554357604#0 7642979#0 7642979#2 556954611#0 7732078" >
        <stop busStop="8423406967" duration="20" until="43.0"/> <!-- None -->
    </route>
    <route id="pt_subway_L6:0" color="147,147,147" edges="1054025302" >
        <stop busStop="5305486978" duration="20" until="96.0"/> <!-- Príncipe Pío -->
    </route>
    <route id="pt_bus_62:0" color="0,114,206" edges="43410331 26631680#1 388101134 7726328 7648762#0 7648762#1 49016394 7732088 7732086 -7732089#0 26674010#0 26674010#1 685984978#0 31000487 1184617809 7648767#1 7648767#2" >
    </route>
    <route id="pt_bus_41:0" color="0,114,206" edges="40933501#0 40933501#1 45316487#0 45316487#1 685984978#0 31000487 1184617809" >
        <stop busStop="8473691225" duration="20" until="131.0"/> <!-- None -->
    </route>
    <route id="pt_train_C-1:0" color="0,154,213" edges="1067764157 28998741 1058216793#0 1058216793#1 571606404" >
        <stop busStop="26080642" duration="20" until="31.0"/> <!-- Príncipe Pío Vía 1 -->
    </route>
    <route id="pt_bus_45:1" color="0,114,206" edges="907102748#0 907102748#1 131443348#0 4349010 511895636 1260545323#0 1260545323#1 1260545324 44288721#1 44288721#2 262951802#0 30674611 686214706#0 686214706#1 686214706#2 686214706#3 262951801#0 262951801#1 262951801#2 262951801#3 262951801#5" >
        <stop busStop="8440634349" duration="20" until="59.0"/> <!-- None -->
    </route>
    <route id="pt_bus_N13:0" color="black" edges="128089326 262951800 686214706#0 686214706#1 686214706#2 686214706#3 262951801#0 262951801#1 262951801#2 262951801#3 262951801#5" >
        <stop busStop="8423356496" duration="20" until="39.0"/> <!-- None -->
    </route>
    <route id="pt_bus_37:1" color="0,114,206" edges="562027283 562027284#1 302580240#0 302580240#1 243991597 243991596#0 243991596#1 911013768" >
        <stop busStop="8433060766" duration="20" until="319.0"/> <!-- None -->
    </route>