<?xml version="1.0" encoding="UTF-8"?>

<!-- generated on 2024-06-25 11:33:43.619092 by osmWebWizard.py v1_19_0+0000-baa66a0f364
<configuration>
    <net-file value="C:\Users\Jaime\Sumo\2024-06-25-11-33-30\osm.net.xml.gz"/>
    <output-trip-file value="C:\Users\Jaime\Sumo\2024-06-25-11-33-30\osm.passenger.trips.xml"/>
    <route-file value="C:\Users\Jaime\Sumo\2024-06-25-11-33-30\osm.passenger.rou.xml"/>
    <prefix value="veh"/>
    <trip-attributes value="departLane=&quot;best&quot;"/>
    <fringe-start-attributes value="departSpeed=&quot;max&quot;"/>
    <vehicle-class value="passenger"/>
    <lanes value="True"/>
    <fringe-factor value="5"/>
    <allow-fringe.min-length value="1000.0"/>
    <via-edge-types value="highway.motorway,highway.motorway_link,highway.trunk_link,highway.primary_link,highway.secondary_link,highway.tertiary_link"/>
    <min-distance value="300.0"/>
    <min-distance.fringe value="10.0"/>
    <remove-loops value="True"/>
    <validate value="True"/>
    <end value="4000.0"/>
    <insertion-density value="12.0"/>
</configuration>
-->

<!-- generated on 2024-06-25 11:33:43 by Eclipse SUMO duarouter Version 1.19.0
<configuration xmlns:xsi="http://www.w3.org/2001/XMLSchema-instance" xsi:noNamespaceSchemaLocation="http://sumo.dlr.de/xsd/duarouterConfiguration.xsd">

    <input>
        <net-file value="C:\Users\Jaime\Sumo\2024-06-25-11-33-30\osm.net.xml.gz"/>
        <route-files value="C:\Users\Jaime\Sumo\2024-06-25-11-33-30\osm.passenger.trips.xml"/>
    </input>

    <output>
        <output-file value="C:\Users\Jaime\Sumo\2024-06-25-11-33-30\osm.passenger.trips.xml.tmp"/>
        <alternatives-output value="NUL"/>
        <write-trips value="true"/>
    </output>

    <processing>
        <remove-loops value="true"/>
    </processing>

    <time>
        <begin value="0.0"/>
        <end value="4000.0"/>
    </time>

    <report>
        <no-warnings value="true"/>
        <ignore-errors value="true"/>
        <no-step-log value="true"/>
    </report>

</configuration>
-->

<routes xmlns:xsi="http://www.w3.org/2001/XMLSchema-instance" xsi:noNamespaceSchemaLocation="http://sumo.dlr.de/xsd/routes_file.xsd">
    <vType id="veh_passenger" vClass="passenger"/>
    <trip id="veh0" type="veh_passenger" depart="0.00" departLane="best" from="4487153" to="-263793367#0"/>
    <trip id="veh1" type="veh_passenger" depart="3.64" departLane="best" departSpeed="max" from="562027283" to="-45316487#0"/>
    <trip id="veh2" type="veh_passenger" depart="7.29" departLane="best" from="7732914#0" to="4487173#1"/>
    <trip id="veh3" type="veh_passenger" depart="10.93" departLane="best" from="31261348#1" to="-27452824"/>
    <trip id="veh6" type="veh_passenger" depart="21.87" departLane="best" from="4487676#0" to="431767100#1"/>
    <trip id="veh7" type="veh_passenger" depart="25.51" departLane="best" from="151189248" to="-43410312#0"/>
    <trip id="veh8" type="veh_passenger" depart="29.15" departLane="best" from="762216476#0" to="130757781#1"/>
    <trip id="veh9" type="veh_passenger" depart="32.80" departLane="best" from="71808949#1" to="49016394"/>
    <trip id="veh10" type="veh_passenger" depart="36.44" departLane="best" from="293712003#3" to="107467882#1"/>
    <trip id="veh12" type="veh_passenger" depart="43.73" departLane="best" from="-651525544#0" to="-45316487#2"/>
    <trip id="veh13" type="veh_passenger" depart="47.37" departLane="best" from="7712510#1" to="4349010"/>
    <trip id="veh14" type="veh_passenger" depart="51.02" departLane="best" from="71808949#3" to="554357604#0"/>
    <trip id="veh15" type="veh_passenger" depart="54.66" departLane="best" from="424852628#0" to="82567682"/>
    <trip id="veh16" type="veh_passenger" depart="58.31" departLane="best" from="302580242#1" to="43264976"/>
    <trip id="veh17" type="veh_passenger" depart="61.95" departLane="best" departSpeed="max" from="7648748" to="44535820"/>
    <trip id="veh18" type="veh_passenger" depart="65.60" departLane="best" from="7726327" to="4328798#2"/>
    <trip id="veh19" type="veh_passenger" depart="69.24" departLane="best" from="49031985#0" to="-31309326#4"/>
    <trip id="veh20" type="veh_passenger" depart="72.88" departLane="best" from="152458476#2" to="23407031#1"/>
    <trip id="veh21" type="veh_passenger" depart="76.53" departLane="best" from="44885764#3" to="150822159#2"/>
    <trip id="veh22" type="veh_passenger" depart="80.17" departLane="best" departSpeed="max" from="-7642938" to="174851222#0"/>
    <trip id="veh24" type="veh_passenger" depart="87.46" departLane="best" from="17760812#0" to="131431688#0"/>
    <trip id="veh25" type="veh_passenger" depart="91.10" departLane="best" from="23407031#2" to="7972752#1"/>
    <trip id="veh26" type="veh_passenger" depart="94.75" departLane="best" from="4487670#5" to="43759793#0"/>
    <trip id="veh27" type="veh_passenger" depart="98.39" departLane="best" from="1260545323#1" to="54686264#1"/>
    <trip id="veh28" type="veh_passenger" depart="102.04" departLane="best" from="122150989#1" to="30676403#0"/>
    <trip id="veh29" type="veh_passenger" depart="105.68" departLane="best" departSpeed="max" from="907102748#0" to="4487521#1"/>
    <trip id="veh30" type="veh_passenger" depart="109.33" departLane="best" from="4328608" to="46098088#0"/>
    <trip id="veh31" type="veh_passenger" depart="112.97" departLane="best" from="155551743#0" to="-293712003#0"/>
    <trip id="veh32" type="veh_passenger" depart="116.61" departLane="best" departSpeed="max" from="28682931" to="174811772#0"/>
    <trip id="veh34" type="veh_passenger" depart="123.90" departLane="best" departSpeed="max" from="7732093#0" to="262951801#3"/>
    <trip id="veh35" type="veh_passenger" depart="127.55" departLane="best" from="4487679#4" to="31021779#5"/>
    <trip id="veh36" type="veh_passenger" depart="131.19" departLane="best" from="767647778#0" to="334731363#1"/>
    <trip id="veh37" type="veh_passenger" depart="134.83" departLane="best" from="23407030#2" to="-151362350"/>
    <trip id="veh38" type="veh_passenger" depart="138.48" departLane="best" from="4328801#0" to="7971936#0"/>
    <trip id="veh39" type="veh_passenger" depart="142.12" departLane="best" from="31053324#0" to="131431688#0"/>
    <trip id="veh40" type="veh_passenger" depart="145.77" departLane="best" from="-936883629" to="41602114#0"/>
    <trip id="veh41" type="veh_passenger" depart="149.41" departLane="best" from="5927797#1" to="31769187#1"/>
    <trip id="veh43" type="veh_passenger" depart="156.70" departLane="best" from="689777341" to="31261348#0"/>
    <trip id="veh44" type="veh_passenger" depart="160.34" departLane="best" from="-398751337#0" to="-30993228#1"/>
    <trip id="veh45" type="veh_passenger" depart="163.99" departLane="best" from="908546756#1" to="4308074#0"/>
    <trip id="veh46" type="veh_passenger" depart="167.63" departLane="best" from="82280716#1" to="7732089#0"/>
    <trip id="veh47" type="veh_passenger" depart="171.28" departLane="best" from="-130757781#1" to="542325013#0"/>
    <trip id="veh48" type="veh_passenger" depart="174.92" departLane="best" from="46098085#1" to="4308590#4"/>
    <trip id="veh49" type="veh_passenger" depart="178.57" departLane="best" departSpeed="max" from="-7732900#1" to="31739739#0"/>
    <trip id="veh50" type="veh_passenger" depart="182.21" departLane="best" departSpeed="max" from="7732093#0" to="166226109"/>
    <trip id="veh51" type="veh_passenger" depart="185.85" departLane="best" departSpeed="max" from="38114021" to="1201732609#0"/>
    <trip id="veh52" type="veh_passenger" depart="189.50" departLane="best" from="7971925#0" to="7732908#1"/>
    <trip id="veh54" type="veh_passenger" depart="196.79" departLane="best" from="626418867#1" to="431524807#1"/>
    <trip id="veh55" type="veh_passenger" depart="200.43" departLane="best" from="686214267" to="4308074#3"/>
    <trip id="veh56" type="veh_passenger" depart="204.07" departLane="best" from="-1012622874" to="262951802#0"/>
    <trip id="veh57" type="veh_passenger" depart="207.72" departLane="best" departSpeed="max" from="-151362347#1" to="7972694#2"/>
    <trip id="veh58" type="veh_passenger" depart="211.36" departLane="best" from="7732890#3" to="7712488"/>
    <trip id="veh59" type="veh_passenger" depart="215.01" departLane="best" from="26674010#1" to="398751337#0"/>
    <trip id="veh60" type="veh_passenger" depart="218.65" departLane="best" from="7732890#0" to="7988355#1"/>
    <trip id="veh61" type="veh_passenger" depart="222.30" departLane="best" from="-49016394" to="355939669#4"/>
    <trip id="veh62" type="veh_passenger" depart="225.94" departLane="best" from="-423000381" to="685983423"/>
    <trip id="veh63" type="veh_passenger" depart="229.58" departLane="best" departSpeed="max" from="651525544#0" to="-7732894#1"/>
    <trip id="veh64" type="veh_passenger" depart="233.23" departLane="best" from="34095413" to="43264976"/>
    <trip id="veh65" type="veh_passenger" depart="236.87" departLane="best" from="23407030#2" to="7734393"/>
    <trip id="veh66" type="veh_passenger" depart="240.52" departLane="best" from="31261528#1" to="131431688#0"/>
    <trip id="veh67" type="veh_passenger" depart="244.16" departLane="best" from="4264184#1" to="554357604#0"/>
    <trip id="veh68" type="veh_passenger" depart="247.80" departLane="best" departSpeed="max" from="131443347#0" to="262951801#2"/>
    <trip id="veh69" type="veh_passenger" depart="251.45" departLane="best" from="908546756#1" to="4487679#3"/>
    <trip id="veh70" type="veh_passenger" depart="255.09" departLane="best" from="32044942#1" to="423231390"/>
    <trip id="veh72" type="veh_passenger" depart="262.38" departLane="best" departSpeed="max" from="293712003#0" to="4328843"/>
    <trip id="veh73" type="veh_passenger" depart="266.03" departLane="best" from="-155551743#1" to="131431688#0"/>
    <trip id="veh74" type="veh_passenger" depart="269.67" departLane="best" from="4264184#1" to="4487130#2"/>
    <trip id="veh75" type="veh_passenger" depart="273.31" departLane="best" from="-155551743#0" to="7972372#4"/>
    <trip id="veh76" type="veh_passenger" depart="276.96" departLane="best" from="7726322" to="-423000381"/>
    <trip id="veh77" type="veh_passenger" depart="280.60" departLane="best" from="166226099#2" to="4519456#2"/>
    <trip id="veh78" type="veh_passenger" depart="284.25" departLane="best" from="148898247#0" to="-7972312#2"/>
    <trip id="veh79" type="veh_passenger" depart="287.89" departLane="best" from="7972554#1" to="4328790#3"/>
    <trip id="veh80" type="veh_passenger" depart="291.53" departLane="best" departSpeed="max" from="34095405#0" to="71634922#1"/>
    <trip id="veh81" type="veh_passenger" depart="295.18" departLane="best" from="71808949#3" to="1260545323#1"/>
    <trip id="veh83" type="veh_passenger" depart="302.47" departLane="best" departSpeed="max" from="562027283" to="4519460#0"/>
    <trip id="veh84" type="veh_passenger" depart="306.11" departLane="best" departSpeed="max" from="907102748#0" to="49016394"/>
    <trip id="veh85" type="veh_passenger" depart="309.76" departLane="best" from="7971922" to="26674010#0"/>
    <trip id="veh86" type="veh_passenger" depart="313.40" departLane="best" from="7726327" to="152458476#0"/>
    <trip id="veh88" type="veh_passenger" depart="320.69" departLane="best" from="31261348#1" to="174851222#1"/>
    <trip id="veh89" type="veh_passenger" depart="324.33" departLane="best" from="174841899#3" to="7972664#4"/>
    <trip id="veh90" type="veh_passenger" depart="327.98" departLane="best" from="431524808#1" to="-32597086#0"/>
    <trip id="veh91" type="veh_passenger" depart="331.62" departLane="best" from="813598084" to="7972665#3"/>
    <trip id="veh93" type="veh_passenger" depart="338.91" departLane="best" from="355939668" to="131431688#0"/>
    <trip id="veh94" type="veh_passenger" depart="342.55" departLane="best" from="31053325#0" to="398751337#3"/>
    <trip id="veh95" type="veh_passenger" depart="346.20" departLane="best" from="302580242#1" to="417019353"/>
    <trip id="veh96" type="veh_passenger" depart="349.84" departLane="best" from="23407030#3" to="71634922#1"/>
    <trip id="veh97" type="veh_passenger" depart="353.49" departLane="best" departSpeed="max" from="335563211#0" to="31261348#1"/>
    <trip id="veh98" type="veh_passenger" depart="357.13" departLane="best" from="7988358#0" to="911013768"/>
    <trip id="veh100" type="veh_passenger" depart="364.42" departLane="best" from="1137958525#1" to="23689803"/>
    <trip id="veh101" type="veh_passenger" depart="368.06" departLane="best" from="813598084" to="4328802#2"/>
    <trip id="veh102" type="veh_passenger" depart="371.71" departLane="best" from="4308074#1" to="604998641#1"/>
    <trip id="veh103" type="veh_passenger" depart="375.35" departLane="best" from="-331165013" to="4328803#2"/>
    <trip id="veh104" type="veh_passenger" depart="379.00" departLane="best" from="387848379#1" to="7732067#1"/>
    <trip id="veh105" type="veh_passenger" depart="382.64" departLane="best" from="1137958527" to="80240818"/>
    <trip id="veh106" type="veh_passenger" depart="386.28" departLane="best" from="44885764#4" to="-1240980814"/>
    <trip id="veh107" type="veh_passenger" depart="389.93" departLane="best" departSpeed="max" from="43410331" to="4519465#4"/>
    <trip id="veh108" type="veh_passenger" depart="393.57" departLane="best" from="166226097#1" to="-699385225"/>
    <trip id="veh109" type="veh_passenger" depart="397.22" departLane="best" from="31234179#6" to="4328803#1"/>
    <trip id="veh110" type="veh_passenger" depart="400.86" departLane="best" from="41602114#0" to="7972698#4"/>
    <trip id="veh111" type="veh_passenger" depart="404.50" departLane="best" from="131443348#0" to="-519453589"/>
    <trip id="veh112" type="veh_passenger" depart="408.15" departLane="best" from="166226104" to="31021779#4"/>
    <trip id="veh113" type="veh_passenger" depart="411.79" departLane="best" from="4519460#0" to="-239499978#1"/>
    <trip id="veh114" type="veh_passenger" depart="415.44" departLane="best" departSpeed="max" from="28682931" to="627773366"/>
    <trip id="veh115" type="veh_passenger" depart="419.08" departLane="best" from="-4264184#2" to="334731363#1"/>
    <trip id="veh116" type="veh_passenger" depart="422.73" departLane="best" from="984759713#1" to="911013768"/>
    <trip id="veh117" type="veh_passenger" depart="426.37" departLane="best" from="-4328804#0" to="131431688#0"/>
    <trip id="veh118" type="veh_passenger" depart="430.01" departLane="best" from="23407030#3" to="7972698#4"/>
    <trip id="veh119" type="veh_passenger" depart="433.66" departLane="best" departSpeed="max" from="7732892" to="7971493#3"/>
    <trip id="veh120" type="veh_passenger" depart="437.30" departLane="best" from="30246953#1" to="1082989165#1"/>
    <trip id="veh121" type="veh_passenger" depart="440.95" departLane="best" departSpeed="max" from="7648748" to="49016419#1"/>
    <trip id="veh122" type="veh_passenger" depart="444.59" departLane="best" from="4487679#3" to="-131751222#0"/>
    <trip id="veh123" type="veh_passenger" depart="448.23" departLane="best" from="7642926#3" to="-239499978#1"/>
    <trip id="veh124" type="veh_passenger" depart="451.88" departLane="best" from="1057894242" to="685984978#0"/>
    <trip id="veh126" type="veh_passenger" depart="459.17" departLane="best" from="529001504#0" to="1289077480"/>
    <trip id="veh127" type="veh_passenger" depart="462.81" departLane="best" from="4487130#3" to="166226111"/>
    <trip id="veh128" type="veh_passenger" depart="466.46" departLane="best" from="355939669#2" to="7972372#4"/>
    <trip id="veh129" type="veh_passenger" depart="470.10" departLane="best" from="335717551#0" to="-44885764#3"/>
    <trip id="veh130" type="veh_passenger" depart="473.74" departLane="best" from="31261528#4" to="174841899#1"/>
    <trip id="veh131" type="veh_passenger" depart="477.39" departLane="best" from="1238944954" to="686215410"/>
    <trip id="veh132" type="veh_passenger" depart="481.03" departLane="best" from="4487131#1" to="166226109"/>
    <trip id="veh133" type="veh_passenger" depart="484.68" departLane="best" departSpeed="max" from="5856621#0" to="43264976"/>
    <trip id="veh134" type="veh_passenger" depart="488.32" departLane="best" from="31262321#2" to="-131751222#0"/>
    <trip id="veh135" type="veh_passenger" depart="491.96" departLane="best" departSpeed="max" from="-4328804#1" to="7971496#4"/>
    <trip id="veh137" type="veh_passenger" depart="499.25" departLane="best" from="112538828#2" to="-7732894#0"/>
    <trip id="veh138" type="veh_passenger" depart="502.90" departLane="best" from="269291945#1" to="7972160#1"/>
    <trip id="veh139" type="veh_passenger" depart="506.54" departLane="best" from="-699385225" to="7732089#0"/>
    <trip id="veh140" type="veh_passenger" depart="510.19" departLane="best" from="174841899#2" to="-5856621#0"/>
    <trip id="veh141" type="veh_passenger" depart="513.83" departLane="best" from="686214706#0" to="7971499"/>
    <trip id="veh144" type="veh_passenger" depart="524.76" departLane="best" from="7726328" to="859877408"/>
    <trip id="veh146" type="veh_passenger" depart="532.05" departLane="best" departSpeed="max" from="-166226109" to="5856625#1"/>
    <trip id="veh147" type="veh_passenger" depart="535.70" departLane="best" from="29045205#2" to="7972698#0"/>
    <trip id="veh150" type="veh_passenger" depart="546.63" departLane="best" departSpeed="max" from="686216023" to="-5935913"/>
    <trip id="veh151" type="veh_passenger" depart="550.27" departLane="best" from="151362344#2" to="7643050#4"/>
    <trip id="veh152" type="veh_passenger" depart="553.92" departLane="best" departSpeed="max" from="335563211#0" to="243991596#0"/>
    <trip id="veh153" type="veh_passenger" depart="557.56" departLane="best" from="691794842" to="138884771#0"/>
    <trip id="veh154" type="veh_passenger" depart="561.20" departLane="best" from="155551743#2" to="1275419909"/>
    <trip id="veh155" type="veh_passenger" depart="564.85" departLane="best" from="4487157#1" to="31053298"/>
    <trip id="veh156" type="veh_passenger" depart="568.49" departLane="best" from="885687791" to="4308590#4"/>
    <trip id="veh158" type="veh_passenger" depart="575.78" departLane="best" from="82280715#1" to="1184617809"/>
    <trip id="veh159" type="veh_passenger" depart="579.43" departLane="best" from="7988367#2" to="168404659"/>
    <trip id="veh160" type="veh_passenger" depart="583.07" departLane="best" from="-7648762#1" to="31739739#0"/>
    <trip id="veh161" type="veh_passenger" depart="586.71" departLane="best" departSpeed="max" from="562027283" to="262951801#3"/>
    <trip id="veh162" type="veh_passenger" depart="590.36" departLane="best" from="4346299#0" to="41699453#2"/>
    <trip id="veh163" type="veh_passenger" depart="594.00" departLane="best" from="30676403#2" to="4328798#1"/>
    <trip id="veh164" type="veh_passenger" depart="597.65" departLane="best" from="174851639#1" to="-490391710#0"/>
    <trip id="veh165" type="veh_passenger" depart="601.29" departLane="best" from="355939669#5" to="7972665#2"/>
    <trip id="veh166" type="veh_passenger" depart="604.93" departLane="best" from="-4264184#0" to="542325013#0"/>
    <trip id="veh167" type="veh_passenger" depart="608.58" departLane="best" from="5926290#2" to="4519457#2"/>
    <trip id="veh168" type="veh_passenger" depart="612.22" departLane="best" from="29499420#5" to="419119406#1"/>
    <trip id="veh169" type="veh_passenger" depart="615.87" departLane="best" from="4518851#1" to="26631680#1"/>
    <trip id="veh172" type="veh_passenger" depart="626.80" departLane="best" from="7971922" to="23689800#0"/>
    <trip id="veh173" type="veh_passenger" depart="630.44" departLane="best" from="4346292#6" to="31234179#6"/>
    <trip id="veh174" type="veh_passenger" depart="634.09" departLane="best" departSpeed="max" from="7972665#0" to="-45316487#0"/>
    <trip id="veh175" type="veh_passenger" depart="637.73" departLane="best" from="43410327#0" to="43264976"/>
    <trip id="veh177" type="veh_passenger" depart="645.02" departLane="best" from="31309326#3" to="4328802#3"/>
    <trip id="veh178" type="veh_passenger" depart="648.66" departLane="best" from="4487679#4" to="262951802#0"/>
    <trip id="veh179" type="veh_passenger" depart="652.31" departLane="best" from="32480199#1" to="131431688#0"/>
    <trip id="veh180" type="veh_passenger" depart="655.95" departLane="best" from="34095405#1" to="-7972312#2"/>
    <trip id="veh182" type="veh_passenger" depart="663.24" departLane="best" from="45316487#1" to="422267254"/>
    <trip id="veh183" type="veh_passenger" depart="666.89" departLane="best" from="7642939#0" to="626418867#1"/>
    <trip id="veh185" type="veh_passenger" depart="674.17" departLane="best" departSpeed="max" from="131443347#0" to="-263793367#0"/>
    <trip id="veh189" type="veh_passenger" depart="688.75" departLane="best" departSpeed="max" from="131443347#0" to="48761445#1"/>
    <trip id="veh190" type="veh_passenger" depart="692.40" departLane="best" from="363611231" to="151362347#1"/>
    <trip id="veh191" type="veh_passenger" depart="696.04" departLane="best" from="4487679#5" to="-1289160767"/>
    <trip id="veh192" type="veh_passenger" depart="699.68" departLane="best" from="5930469#2" to="686214706#3"/>
    <trip id="veh194" type="veh_passenger" depart="706.97" departLane="best" from="1275419910" to="7988660#1"/>
    <trip id="veh195" type="veh_passenger" depart="710.62" departLane="best" departSpeed="max" from="40933501#0" to="1275083958#0"/>
    <trip id="veh196" type="veh_passenger" depart="714.26" departLane="best" from="174841899#2" to="7726327"/>
    <trip id="veh197" type="veh_passenger" depart="717.90" departLane="best" departSpeed="max" from="335563211#0" to="7642926#3"/>
    <trip id="veh198" type="veh_passenger" depart="721.55" departLane="best" from="4519453" to="911013768"/>
    <trip id="veh199" type="veh_passenger" depart="725.19" departLane="best" departSpeed="max" from="43410331" to="7988359#1"/>
    <trip id="veh200" type="veh_passenger" depart="728.84" departLane="best" from="7732908#1" to="43759793#3"/>
    <trip id="veh202" type="veh_passenger" depart="736.13" departLane="best" departSpeed="max" from="7648748" to="43264976"/>
    <trip id="veh203" type="veh_passenger" depart="739.77" departLane="best" from="7971489#0" to="5930469#1"/>
    <trip id="veh204" type="veh_passenger" depart="743.41" departLane="best" from="34095411#2" to="166226099#0"/>
    <trip id="veh205" type="veh_passenger" depart="747.06" departLane="best" departSpeed="max" from="651525544#0" to="423231391#6"/>
    <trip id="veh206" type="veh_passenger" depart="750.70" departLane="best" from="44288721#1" to="174826091"/>
    <trip id="veh207" type="veh_passenger" depart="754.35" departLane="best" from="-4487807#2" to="178940796#1"/>
    <trip id="veh208" type="veh_passenger" depart="757.99" departLane="best" departSpeed="max" from="23691252#0" to="262951801#5"/>
    <trip id="veh209" type="veh_passenger" depart="761.63" departLane="best" from="-4264184#2" to="-909029029#0"/>
    <trip id="veh210" type="veh_passenger" depart="765.28" departLane="best" from="490391710#0" to="-40933501#0"/>
    <trip id="veh213" type="veh_passenger" depart="776.21" departLane="best" from="31234179#8" to="7972372#3"/>
    <trip id="veh214" type="veh_passenger" depart="779.86" departLane="best" from="30674611" to="130468268#1"/>
    <trip id="veh215" type="veh_passenger" depart="783.50" departLane="best" from="29485945#1" to="651533184#0"/>
    <trip id="veh216" type="veh_passenger" depart="787.14" departLane="best" departSpeed="max" from="7726290#0" to="7988367#2"/>
    <trip id="veh217" type="veh_passenger" depart="790.79" departLane="best" from="31234179#6" to="604998641#0"/>
    <trip id="veh219" type="veh_passenger" depart="798.08" departLane="best" from="151189248" to="131431688#0"/>
    <trip id="veh220" type="veh_passenger" depart="801.72" departLane="best" from="-31769258#0" to="269291945#0"/>
    <trip id="veh221" type="veh_passenger" depart="805.36" departLane="best" departSpeed="max" from="293712003#0" to="-45316487#2"/>
    <trip id="veh223" type="veh_passenger" depart="812.65" departLane="best" departSpeed="max" from="335825753#0" to="-7732894#0"/>
    <trip id="veh225" type="veh_passenger" depart="819.94" departLane="best" from="31021779#3" to="4328778#3"/>
    <trip id="veh226" type="veh_passenger" depart="823.59" departLane="best" from="-174836651#0" to="4487670#4"/>
    <trip id="veh228" type="veh_passenger" depart="830.87" departLane="best" from="-31769187#0" to="30674933#2"/>
    <trip id="veh230" type="veh_passenger" depart="838.16" departLane="best" from="604998641#5" to="30674933#2"/>
    <trip id="veh231" type="veh_passenger" depart="841.81" departLane="best" departSpeed="max" from="5935913" to="7712488"/>
    <trip id="veh232" type="veh_passenger" depart="845.45" departLane="best" departSpeed="max" from="174851639#0" to="-4328791"/>
    <trip id="veh233" type="veh_passenger" depart="849.10" departLane="best" departSpeed="max" from="-151362347#1" to="431524807#1"/>
    <trip id="veh234" type="veh_passenger" depart="852.74" departLane="best" from="992011777#3" to="28998512#1"/>
    <trip id="veh235" type="veh_passenger" depart="856.38" departLane="best" from="4487676#0" to="70955486"/>
    <trip id="veh236" type="veh_passenger" depart="860.03" departLane="best" from="4487679#1" to="-651543114#1"/>
    <trip id="veh237" type="veh_passenger" depart="863.67" departLane="best" from="857470474" to="128089311"/>
    <trip id="veh238" type="veh_passenger" depart="867.32" departLane="best" departSpeed="max" from="-151362347#1" to="1057894241#0"/>
    <trip id="veh239" type="veh_passenger" depart="870.96" departLane="best" from="839411286#1" to="4519457#0"/>
    <trip id="veh240" type="veh_passenger" depart="874.60" departLane="best" from="4328769" to="131431688#0"/>
    <trip id="veh241" type="veh_passenger" depart="878.25" departLane="best" from="49016406#0" to="686214706#1"/>
    <trip id="veh242" type="veh_passenger" depart="881.89" departLane="best" departSpeed="max" from="1240980815#0" to="43759728#2"/>
    <trip id="veh243" type="veh_passenger" depart="885.54" departLane="best" from="5930450#0" to="-651613048#0"/>
    <trip id="veh245" type="veh_passenger" depart="892.83" departLane="best" from="27452821#2" to="-45316487#0"/>
    <trip id="veh246" type="veh_passenger" depart="896.47" departLane="best" from="7988359#0" to="31021779#6"/>
    <trip id="veh247" type="veh_passenger" depart="900.11" departLane="best" from="511895636" to="-4328612"/>
    <trip id="veh250" type="veh_passenger" depart="911.05" departLane="best" from="7712524#0" to="4346299#5"/>
    <trip id="veh251" type="veh_passenger" depart="914.69" departLane="best" departSpeed="max" from="-7973711" to="908214774"/>
    <trip id="veh252" type="veh_passenger" depart="918.33" departLane="best" from="686214706#2" to="285185129#0"/>
    <trip id="veh253" type="veh_passenger" depart="921.98" departLane="best" from="31262349#1" to="302580241#0"/>
    <trip id="veh254" type="veh_passenger" depart="925.62" departLane="best" from="388101134" to="26674010#1"/>
    <trip id="veh255" type="veh_passenger" depart="929.27" departLane="best" from="7712510#5" to="7648763#2"/>
    <trip id="veh257" type="veh_passenger" depart="936.56" departLane="best" departSpeed="max" from="4487131#0" to="7648767#2"/>
    <trip id="veh258" type="veh_passenger" depart="940.20" departLane="best" from="490391710#1" to="31739870"/>
    <trip id="veh259" type="veh_passenger" depart="943.84" departLane="best" departSpeed="max" from="562027283" to="-82280716#1"/>
    <trip id="veh260" type="veh_passenger" depart="947.49" departLane="best" from="23689800#0" to="7642939#5"/>
    <trip id="veh261" type="veh_passenger" depart="951.13" departLane="best" from="-31769258#0" to="556954608#1"/>
    <trip id="veh262" type="veh_passenger" depart="954.78" departLane="best" from="23407031#5" to="7732065#0"/>
    <trip id="veh263" type="veh_passenger" depart="958.42" departLane="best" departSpeed="max" from="7648748" to="-4346292#4"/>
    <trip id="veh264" type="veh_passenger" depart="962.06" departLane="best" from="335735817#0" to="43759793#1"/>
    <trip id="veh265" type="veh_passenger" depart="965.71" departLane="best" from="302580242#1" to="-26674010#1"/>
    <trip id="veh267" type="veh_passenger" depart="973.00" departLane="best" from="138884771#1" to="7642922#0"/>
    <trip id="veh268" type="veh_passenger" depart="976.64" departLane="best" from="293712003#3" to="7971495#0"/>
    <trip id="veh269" type="veh_passenger" depart="980.29" departLane="best" from="49016408#0" to="174841899#1"/>
    <trip id="veh270" type="veh_passenger" depart="983.93" departLane="best" from="-1289160767" to="7988355#4"/>
    <trip id="veh271" type="veh_passenger" depart="987.57" departLane="best" from="-49016394" to="542325013#0"/>
    <trip id="veh272" type="veh_passenger" depart="991.22" departLane="best" from="355939669#2" to="66833793#3"/>
    <trip id="veh273" type="veh_passenger" depart="994.86" departLane="best" from="48408550" to="4487676#1"/>
    <trip id="veh274" type="veh_passenger" depart="998.51" departLane="best" from="-107467873#0" to="71808951"/>
    <trip id="veh275" type="veh_passenger" depart="1002.15" departLane="best" from="-651543114#1" to="131431688#0"/>
    <trip id="veh276" type="veh_passenger" depart="1005.79" departLane="best" from="48408678" to="243991596#1"/>
    <trip id="veh277" type="veh_passenger" depart="1009.44" departLane="best" from="4328798#2" to="34095413"/>
    <trip id="veh278" type="veh_passenger" depart="1013.08" departLane="best" from="423231390" to="31261528#4"/>
    <trip id="veh279" type="veh_passenger" depart="1016.73" departLane="best" from="5926294" to="26631682"/>
    <trip id="veh280" type="veh_passenger" depart="1020.37" departLane="best" from="-49016411#1" to="174811779#1"/>