<?xml version="1.0" encoding="UTF-8"?>

<!-- generated on 2024-04-11 19:46:26.182748 by osmWebWizard.py v1_19_0+0000-baa66a0f364
<configuration>
    <net-file value="C:\Users\Jaime\Sumo\2024-04-11-19-46-06\osm.net.xml.gz"/>
    <output-trip-file value="C:\Users\Jaime\Sumo\2024-04-11-19-46-06\osm.passenger.trips.xml"/>
    <route-file value="C:\Users\Jaime\Sumo\2024-04-11-19-46-06\osm.passenger.rou.xml"/>
    <prefix value="veh"/>
    <trip-attributes value="departLane=&quot;best&quot;"/>
    <fringe-start-attributes value="departSpeed=&quot;max&quot;"/>
    <vehicle-class value="passenger"/>
    <lanes value="True"/>
    <fringe-factor value="5"/>
    <allow-fringe.min-length value="1000.0"/>
    <via-edge-types value="highway.motorway,highway.motorway_link,highway.trunk_link,highway.primary_link,highway.secondary_link,highway.tertiary_link"/>
    <min-distance value="300.0"/>
    <min-distance.fringe value="10.0"/>
    <remove-loops value="True"/>
    <validate value="True"/>
    <insertion-density value="12.0"/>
</configuration>
-->

<!-- generated on 2024-04-11 19:46:25 by Eclipse SUMO duarouter Version 1.19.0
<configuration xmlns:xsi="http://www.w3.org/2001/XMLSchema-instance" xsi:noNamespaceSchemaLocation="http://sumo.dlr.de/xsd/duarouterConfiguration.xsd">

    <input>
        <net-file value="C:\Users\Jaime\Sumo\2024-04-11-19-46-06\osm.net.xml.gz"/>
        <route-files value="C:\Users\Jaime\Sumo\2024-04-11-19-46-06\osm.passenger.trips.xml"/>
    </input>

    <output>
        <output-file value="C:\Users\Jaime\Sumo\2024-04-11-19-46-06\osm.passenger.trips.xml.tmp"/>
        <alternatives-output value="NUL"/>
        <write-trips value="true"/>
    </output>

    <processing>
        <remove-loops value="true"/>
    </processing>

    <time>
        <begin value="0.0"/>
        <end value="3600.0"/>
    </time>

    <report>
        <no-warnings value="true"/>
        <ignore-errors value="true"/>
        <no-step-log value="true"/>
    </report>

</configuration>
-->

<routes xmlns:xsi="http://www.w3.org/2001/XMLSchema-instance" xsi:noNamespaceSchemaLocation="http://sumo.dlr.de/xsd/routes_file.xsd">
    <vType id="veh_passenger" vClass="passenger"/>
    <trip id="veh1" type="veh_passenger" depart="1.75" departLane="best" from="238829521#2" to="166226119#0"/>
    <trip id="veh2" type="veh_passenger" depart="3.49" departLane="best" departSpeed="max" from="5856621#0" to="-45316487#0"/>
    <trip id="veh4" type="veh_passenger" depart="6.99" departLane="best" from="-31769187#1" to="-293712003#2"/>
    <trip id="veh5" type="veh_passenger" depart="8.74" departLane="best" from="155872373#3" to="408708554"/>
    <trip id="veh7" type="veh_passenger" depart="12.23" departLane="best" from="4487679#7" to="4328607"/>
    <trip id="veh8" type="veh_passenger" depart="13.98" departLane="best" departSpeed="max" from="160685896" to="4346299#3"/>
    <trip id="veh10" type="veh_passenger" depart="17.47" departLane="best" from="762216476#0" to="48761445#2"/>
    <trip id="veh11" type="veh_passenger" depart="19.22" departLane="best" from="293712003#4" to="119181114#1"/>
    <trip id="veh14" type="veh_passenger" depart="24.46" departLane="best" from="7726296#3" to="437147507"/>
    <trip id="veh15" type="veh_passenger" depart="26.21" departLane="best" from="762216477" to="554230311#1"/>
    <trip id="veh16" type="veh_passenger" depart="27.96" departLane="best" from="431767100#2" to="-82567675"/>
    <trip id="veh17" type="veh_passenger" depart="29.71" departLane="best" from="-7648759#0" to="43797349"/>
    <trip id="veh18" type="veh_passenger" depart="31.45" departLane="best" from="7732071#2" to="43405581#0"/>
    <trip id="veh19" type="veh_passenger" depart="33.20" departLane="best" departSpeed="max" from="4950419" to="-335366386#1"/>
    <trip id="veh20" type="veh_passenger" depart="34.95" departLane="best" from="168404659" to="251971165"/>
    <trip id="veh21" type="veh_passenger" depart="36.70" departLane="best" from="-45588309#4" to="174841899#2"/>
    <trip id="veh22" type="veh_passenger" depart="38.44" departLane="best" departSpeed="max" from="-7971929" to="242694691"/>
    <trip id="veh23" type="veh_passenger" depart="40.19" departLane="best" from="44737269#0" to="29974650#0"/>
    <trip id="veh24" type="veh_passenger" depart="41.94" departLane="best" from="302580242#1" to="-151362350"/>
    <trip id="veh26" type="veh_passenger" depart="45.43" departLane="best" from="4487679#4" to="431767099#2"/>
    <trip id="veh27" type="veh_passenger" depart="47.18" departLane="best" from="24769406#2" to="554230311#1"/>
    <trip id="veh29" type="veh_passenger" depart="50.68" departLane="best" from="907102748#1" to="44737269#1"/>
    <trip id="veh30" type="veh_passenger" depart="52.42" departLane="best" from="4328841#1" to="458778827"/>
    <trip id="veh31" type="veh_passenger" depart="54.17" departLane="best" from="7726287#0" to="1137958526#0"/>
    <trip id="veh32" type="veh_passenger" depart="55.92" departLane="best" from="169379180#1" to="293723001"/>
    <trip id="veh33" type="veh_passenger" depart="57.67" departLane="best" from="285185129#1" to="238829520#1"/>
    <trip id="veh34" type="veh_passenger" depart="59.41" departLane="best" from="151189247#3" to="7988656"/>
    <trip id="veh35" type="veh_passenger" depart="61.16" departLane="best" departSpeed="max" from="7732928#0" to="27396510#0"/>
    <trip id="veh36" type="veh_passenger" depart="62.91" departLane="best" from="44885764#2" to="31053296#1"/>
    <trip id="veh37" type="veh_passenger" depart="64.66" departLane="best" from="7972546" to="-335366386#3"/>
    <trip id="veh39" type="veh_passenger" depart="68.15" departLane="best" from="43405576#1" to="23691252#1"/>
    <trip id="veh40" type="veh_passenger" depart="69.90" departLane="best" from="4346299#3" to="7972177#3"/>
    <trip id="veh42" type="veh_passenger" depart="73.39" departLane="best" from="965231807#1" to="41559062"/>
    <trip id="veh43" type="veh_passenger" depart="75.14" departLane="best" from="-699385225" to="-34095411#0"/>
    <trip id="veh44" type="veh_passenger" depart="76.89" departLane="best" from="839411286#1" to="43410327#0"/>
    <trip id="veh45" type="veh_passenger" depart="78.64" departLane="best" from="689780380" to="317302445#4"/>
    <trip id="veh47" type="veh_passenger" depart="82.13" departLane="best" from="936883629" to="4308074#2"/>
    <trip id="veh48" type="veh_passenger" depart="83.88" departLane="best" from="815856974" to="7732900#1"/>
    <trip id="veh49" type="veh_passenger" depart="85.63" departLane="best" from="46098085#0" to="431524807#6"/>
    <trip id="veh50" type="veh_passenger" depart="87.37" departLane="best" departSpeed="max" from="1008122062" to="321307763"/>
    <trip id="veh51" type="veh_passenger" depart="89.12" departLane="best" departSpeed="max" from="335825753#0" to="807334398"/>
    <trip id="veh52" type="veh_passenger" depart="90.87" departLane="best" departSpeed="max" from="7732928#0" to="238829520#0"/>
    <trip id="veh53" type="veh_passenger" depart="92.62" departLane="best" departSpeed="max" from="4101292#0" to="130757781#0"/>
    <trip id="veh54" type="veh_passenger" depart="94.36" departLane="best" departSpeed="max" from="7972390" to="7734405"/>
    <trip id="veh55" type="veh_passenger" depart="96.11" departLane="best" from="262951801#3" to="44737269#0"/>
    <trip id="veh56" type="veh_passenger" depart="97.86" departLane="best" departSpeed="max" from="43797350" to="116581860#1"/>
    <trip id="veh57" type="veh_passenger" depart="99.61" departLane="best" from="6601773" to="431524808#0"/>
    <trip id="veh58" type="veh_passenger" depart="101.35" departLane="best" from="686214706#2" to="4308074#6"/>
    <trip id="veh59" type="veh_passenger" depart="103.10" departLane="best" from="-1054368317#1" to="27926837#2"/>
    <trip id="veh60" type="veh_passenger" depart="104.85" departLane="best" departSpeed="max" from="-166226109" to="7972753#0"/>
    <trip id="veh61" type="veh_passenger" depart="106.60" departLane="best" from="7734407" to="7712510#5"/>
    <trip id="veh62" type="veh_passenger" depart="108.34" departLane="best" from="26674010#0" to="-422999624#0"/>
    <trip id="veh63" type="veh_passenger" depart="110.09" departLane="best" from="7734391" to="804457302"/>
    <trip id="veh64" type="veh_passenger" depart="111.84" departLane="best" from="5935914#2" to="37352456#2"/>
    <trip id="veh65" type="veh_passenger" depart="113.59" departLane="best" departSpeed="max" from="-4328804#1" to="652285630#2"/>
    <trip id="veh66" type="veh_passenger" depart="115.33" departLane="best" from="556954611#0" to="112538796#4"/>
    <trip id="veh67" type="veh_passenger" depart="117.08" departLane="best" from="37352456#2" to="4328777#2"/>
    <trip id="veh69" type="veh_passenger" depart="120.58" departLane="best" from="31769258#2" to="-155551743#0"/>
    <trip id="veh70" type="veh_passenger" depart="122.32" departLane="best" departSpeed="max" from="4328612" to="554230311#1"/>
    <trip id="veh71" type="veh_passenger" depart="124.07" departLane="best" from="131751221#2" to="26673998"/>
    <trip id="veh72" type="veh_passenger" depart="125.82" departLane="best" from="928730848#0" to="4487679#1"/>
    <trip id="veh73" type="veh_passenger" depart="127.56" departLane="best" from="32597088" to="421575788#1"/>
    <trip id="veh74" type="veh_passenger" depart="129.31" departLane="best" from="1082989165#0" to="166226119#2"/>
    <trip id="veh75" type="veh_passenger" depart="131.06" departLane="best" from="29230555#0" to="4346299#2"/>
    <trip id="veh76" type="veh_passenger" depart="132.81" departLane="best" from="169379180#4" to="166226109"/>
    <trip id="veh77" type="veh_passenger" depart="134.55" departLane="best" from="-4346292#4" to="44704760#0"/>
    <trip id="veh78" type="veh_passenger" depart="136.30" departLane="best" from="168406444#1" to="7972536"/>
    <trip id="veh79" type="veh_passenger" depart="138.05" departLane="best" from="1137958527" to="4487807#1"/>
    <trip id="veh80" type="veh_passenger" depart="139.80" departLane="best" departSpeed="max" from="174851639#0" to="4518851#1"/>
    <trip id="veh81" type="veh_passenger" depart="141.54" departLane="best" from="152458475#0" to="112538828#1"/>
    <trip id="veh83" type="veh_passenger" depart="145.04" departLane="best" from="37352453" to="70955584#2"/>
    <trip id="veh84" type="veh_passenger" depart="146.79" departLane="best" from="-7732093#1" to="321307744#0"/>
    <trip id="veh85" type="veh_passenger" depart="148.53" departLane="best" from="31769260#0" to="34095410"/>
    <trip id="veh87" type="veh_passenger" depart="152.03" departLane="best" from="864841823" to="-7972312#4"/>
    <trip id="veh90" type="veh_passenger" depart="157.27" departLane="best" from="130757785" to="32865959#1"/>
    <trip id="veh91" type="veh_passenger" depart="159.02" departLane="best" from="-31769187#0" to="242694691"/>
    <trip id="veh93" type="veh_passenger" depart="162.51" departLane="best" from="334382542#2" to="7732902#0"/>
    <trip id="veh94" type="veh_passenger" depart="164.26" departLane="best" departSpeed="max" from="4328791" to="355939669#3"/>
    <trip id="veh95" type="veh_passenger" depart="166.01" departLane="best" from="417019353#1" to="7726287#1"/>
    <trip id="veh96" type="veh_passenger" depart="167.76" departLane="best" from="809156092#0" to="7972706"/>
    <trip id="veh97" type="veh_passenger" depart="169.50" departLane="best" from="7726298#0" to="1225399704#0"/>
    <trip id="veh98" type="veh_passenger" depart="171.25" departLane="best" from="387848379#1" to="155872373#2"/>
    <trip id="veh99" type="veh_passenger" depart="173.00" departLane="best" from="31093152#0" to="-422999624#2"/>
    <trip id="veh100" type="veh_passenger" depart="174.75" departLane="best" from="30674933#0" to="868827764#0"/>
    <trip id="veh101" type="veh_passenger" depart="176.49" departLane="best" from="34083903" to="317302445#5"/>
    <trip id="veh102" type="veh_passenger" depart="178.24" departLane="best" from="807334397#4" to="928730848#0"/>
    <trip id="veh103" type="veh_passenger" depart="179.99" departLane="best" from="4328803#2" to="545103682#1"/>
    <trip id="veh104" type="veh_passenger" depart="181.74" departLane="best" from="112538828#4" to="262459137#0"/>
    <trip id="veh105" type="veh_passenger" depart="183.48" departLane="best" from="4328769" to="593366446"/>
    <trip id="veh106" type="veh_passenger" depart="185.23" departLane="best" from="34095411#1" to="-4346292#7"/>
    <trip id="veh107" type="veh_passenger" depart="186.98" departLane="best" from="41559062" to="7732067#3"/>
    <trip id="veh108" type="veh_passenger" depart="188.73" departLane="best" from="1137958509" to="807334403#7"/>
    <trip id="veh109" type="veh_passenger" depart="190.47" departLane="best" from="-45588309#4" to="131443347#0"/>
    <trip id="veh110" type="veh_passenger" depart="192.22" departLane="best" from="4353021#9" to="4519467#1"/>
    <trip id="veh113" type="veh_passenger" depart="197.46" departLane="best" from="4353021#5" to="44288721#1"/>
    <trip id="veh114" type="veh_passenger" depart="199.21" departLane="best" from="317302445#6" to="-4346292#6"/>
    <trip id="veh116" type="veh_passenger" depart="202.71" departLane="best" from="138884772#2" to="542325013#1"/>
    <trip id="veh117" type="veh_passenger" depart="204.45" departLane="best" from="174851639#1" to="31053296#2"/>
    <trip id="veh118" type="veh_passenger" depart="206.20" departLane="best" from="4519467#1" to="262459137#3"/>
    <trip id="veh120" type="veh_passenger" depart="209.70" departLane="best" from="-4487807#2" to="335366386#0"/>
    <trip id="veh121" type="veh_passenger" depart="211.44" departLane="best" from="977195350" to="-936883629"/>
    <trip id="veh122" type="veh_passenger" depart="213.19" departLane="best" from="44885764#1" to="155872373#1"/>
    <trip id="veh123" type="veh_passenger" depart="214.94" departLane="best" from="23689800#0" to="7972768"/>
    <trip id="veh124" type="veh_passenger" depart="216.69" departLane="best" from="79483258#1" to="155872373#1"/>
    <trip id="veh125" type="veh_passenger" depart="218.43" departLane="best" from="302580242#1" to="119181114#10"/>
    <trip id="veh126" type="veh_passenger" depart="220.18" departLane="best" from="7648766#4" to="49016408#2"/>
    <trip id="veh127" type="veh_passenger" depart="221.93" departLane="best" departSpeed="max" from="43797350" to="907102747"/>
    <trip id="veh128" type="veh_passenger" depart="223.68" departLane="best" from="44885762#0" to="-1240980814"/>
    <trip id="veh129" type="veh_passenger" depart="225.42" departLane="best" from="7642940#0" to="262459137#3"/>
    <trip id="veh130" type="veh_passenger" depart="227.17" departLane="best" from="45084922#6" to="7988355#3"/>
    <trip id="veh132" type="veh_passenger" depart="230.67" departLane="best" from="-82567675" to="4328784#1"/>
    <trip id="veh133" type="veh_passenger" depart="232.41" departLane="best" departSpeed="max" from="238829521#0" to="437147507"/>
    <trip id="veh135" type="veh_passenger" depart="235.91" departLane="best" from="44704760#4" to="238829520#0"/>
    <trip id="veh136" type="veh_passenger" depart="237.66" departLane="best" departSpeed="max" from="393196801" to="7972536"/>
    <trip id="veh137" type="veh_passenger" depart="239.40" departLane="best" from="7726295" to="-691794842"/>
    <trip id="veh138" type="veh_passenger" depart="241.15" departLane="best" from="31769260#0" to="242547871"/>
    <trip id="veh139" type="veh_passenger" depart="242.90" departLane="best" departSpeed="max" from="-116581860#1" to="686213116"/>
    <trip id="veh140" type="veh_passenger" depart="244.65" departLane="best" from="4487130#2" to="23689803#0"/>
    <trip id="veh141" type="veh_passenger" depart="246.39" departLane="best" from="5926290#1" to="4328781"/>
    <trip id="veh142" type="veh_passenger" depart="248.14" departLane="best" from="321307744#1" to="-151362340#0"/>
    <trip id="veh143" type="veh_passenger" depart="249.89" departLane="best" from="-45316487#0" to="7971582"/>
    <trip id="veh144" type="veh_passenger" depart="251.64" departLane="best" from="7972177#3" to="4328609"/>
    <trip id="veh145" type="veh_passenger" depart="253.38" departLane="best" from="-355939669#2" to="43410332#0"/>
    <trip id="veh146" type="veh_passenger" depart="255.13" departLane="best" departSpeed="max" from="112538817#0" to="112538796#3"/>
    <trip id="veh147" type="veh_passenger" depart="256.88" departLane="best" from="26674010#1" to="7972177#6"/>
    <trip id="veh148" type="veh_passenger" depart="258.62" departLane="best" departSpeed="max" from="71054743#0" to="7732900#1"/>
    <trip id="veh149" type="veh_passenger" depart="260.37" departLane="best" from="7972166#1" to="152458475#1"/>
    <trip id="veh151" type="veh_passenger" depart="263.87" departLane="best" from="686216023" to="7971583#2"/>
    <trip id="veh152" type="veh_passenger" depart="265.61" departLane="best" from="312613200#4" to="44288721#2"/>
    <trip id="veh153" type="veh_passenger" depart="267.36" departLane="best" from="112538828#4" to="7972753#1"/>
    <trip id="veh156" type="veh_passenger" depart="272.60" departLane="best" from="28702578#3" to="7972761#0"/>
    <trip id="veh157" type="veh_passenger" depart="274.35" departLane="best" from="71808949#3" to="7732913#3"/>
    <trip id="veh159" type="veh_passenger" depart="277.85" departLane="best" from="687463490#1" to="104799919#0"/>
    <trip id="veh160" type="veh_passenger" depart="279.59" departLane="best" from="166226097#3" to="7648755#1"/>
    <trip id="veh161" type="veh_passenger" depart="281.34" departLane="best" from="31053324#2" to="262951802#0"/>
    <trip id="veh162" type="veh_passenger" depart="283.09" departLane="best" departSpeed="max" from="71054743#0" to="7972167"/>
    <trip id="veh163" type="veh_passenger" depart="284.84" departLane="best" from="-198644582" to="131751221#2"/>
    <trip id="veh165" type="veh_passenger" depart="288.33" departLane="best" departSpeed="max" from="807911343#0" to="242694691"/>
    <trip id="veh166" type="veh_passenger" depart="290.08" departLane="best" from="4487173#1" to="31053363#1"/>
    <trip id="veh167" type="veh_passenger" depart="291.83" departLane="best" from="839411286#1" to="431524807#4"/>
    <trip id="veh169" type="veh_passenger" depart="295.32" departLane="best" from="813598084" to="130757781#0"/>
    <trip id="veh170" type="veh_passenger" depart="297.07" departLane="best" from="807334403#5" to="238829520#1"/>
    <trip id="veh171" type="veh_passenger" depart="298.82" departLane="best" from="-82567680#2" to="321307754#0"/>
    <trip id="veh173" type="veh_passenger" depart="302.31" departLane="best" departSpeed="max" from="43797350" to="41602120"/>
    <trip id="veh174" type="veh_passenger" depart="304.06" departLane="best" from="31000689#3" to="43405580#1"/>
    <trip id="veh175" type="veh_passenger" depart="305.81" departLane="best" departSpeed="max" from="214257065" to="4950798#2"/>
    <trip id="veh176" type="veh_passenger" depart="307.55" departLane="best" from="107467881#0" to="7972703#2"/>
    <trip id="veh178" type="veh_passenger" depart="311.05" departLane="best" from="5926294" to="4519453"/>
    <trip id="veh179" type="veh_passenger" depart="312.80" departLane="best" departSpeed="max" from="30246953#0" to="4487173#1"/>
    <trip id="veh180" type="veh_passenger" depart="314.54" departLane="best" from="45084922#8" to="285582145#7"/>
    <trip id="veh182" type="veh_passenger" depart="318.04" departLane="best" from="545103684#1" to="262951800"/>
    <trip id="veh183" type="veh_passenger" depart="319.79" departLane="best" from="27396510#0" to="31234179#3"/>
    <trip id="veh185" type="veh_passenger" depart="323.28" departLane="best" from="109462896#2" to="317302445#1"/>
    <trip id="veh186" type="veh_passenger" depart="325.03" departLane="best" from="7973718#5" to="-45316487#0"/>
    <trip id="veh187" type="veh_passenger" depart="326.78" departLane="best" departSpeed="max" from="7972177#0" to="43797349"/>
    <trip id="veh188" type="veh_passenger" depart="328.52" departLane="best" from="263793367#0" to="4328770#3"/>
    <trip id="veh189" type="veh_passenger" depart="330.27" departLane="best" from="1054368317#1" to="243991596#1"/>
    <trip id="veh190" type="veh_passenger" depart="332.02" departLane="best" from="44885762#1" to="335825753#2"/>
    <trip id="veh191" type="veh_passenger" depart="333.77" departLane="best" from="-331165013" to="155872373#1"/>
    <trip id="veh192" type="veh_passenger" depart="335.51" departLane="best" from="37352455" to="7972314#0"/>
    <trip id="veh193" type="veh_passenger" depart="337.26" departLane="best" departSpeed="max" from="71054743#0" to="-1238944954"/>
    <trip id="veh194" type="veh_passenger" depart="339.01" departLane="best" from="5927085#0" to="420753262"/>
    <trip id="veh196" type="veh_passenger" depart="342.50" departLane="best" from="293723002#0" to="596974337"/>
    <trip id="veh197" type="veh_passenger" depart="344.25" departLane="best" from="4526341#1" to="166226119#2"/>
    <trip id="veh198" type="veh_passenger" depart="346.00" departLane="best" from="131751221#0" to="-263793367#0"/>
    <trip id="veh199" type="veh_passenger" depart="347.75" departLane="best" departSpeed="max" from="179267058" to="355939669#0"/>
    <trip id="veh200" type="veh_passenger" depart="349.49" departLane="best" from="7726300#0" to="-44885764#3"/>
    <trip id="veh201" type="veh_passenger" depart="351.24" departLane="best" from="316189816-AddedOnRampEdge" to="44704759#2"/>
    <trip id="veh202" type="veh_passenger" depart="352.99" departLane="best" from="131443347#0" to="48409226#0"/>
    <trip id="veh203" type="veh_passenger" depart="354.74" departLane="best" from="-44885764#4" to="116581860#0"/>
    <trip id="veh204" type="veh_passenger" depart="356.48" departLane="best" from="5936478#0" to="686213115#0"/>
    <trip id="veh205" type="veh_passenger" depart="358.23" departLane="best" from="-82567669" to="285582145#5"/>
    <trip id="veh206" type="veh_passenger" depart="359.98" departLane="best" from="121471990" to="807334403#3"/>
    <trip id="veh207" type="veh_passenger" depart="361.73" departLane="best" from="423231391#4" to="355939669#2"/>
    <trip id="veh209" type="veh_passenger" depart="365.22" departLane="best" departSpeed="max" from="34095405#0" to="7642926#2"/>
    <trip id="veh210" type="veh_passenger" depart="366.97" departLane="best" from="4519453" to="907102748#0"/>
    <trip id="veh211" type="veh_passenger" depart="368.72" departLane="best" from="4354743#0" to="807334397#3"/>
    <trip id="veh212" type="veh_passenger" depart="370.46" departLane="best" from="7971583#0" to="43797349"/>
    <trip id="veh214" type="veh_passenger" depart="373.96" departLane="best" from="7648760#3" to="4328770#3"/>
    <trip id="veh215" type="veh_passenger" depart="375.71" departLane="best" from="7972160#1" to="5926290#1"/>
    <trip id="veh217" type="veh_passenger" depart="379.20" departLane="best" from="198644582" to="44737268#1"/>
    <trip id="veh218" type="veh_passenger" depart="380.95" departLane="best" departSpeed="max" from="44704759#0" to="240352170#0"/>
    <trip id="veh219" type="veh_passenger" depart="382.69" departLane="best" from="-45588309#1" to="243991596#0"/>
    <trip id="veh220" type="veh_passenger" depart="384.44" departLane="best" departSpeed="max" from="238829521#0" to="27827429#2"/>
    <trip id="veh221" type="veh_passenger" depart="386.19" departLane="best" departSpeed="max" from="4328612" to="1137958509"/>
    <trip id="veh223" type="veh_passenger" depart="389.68" departLane="best" departSpeed="max" from="4950419" to="-4328613"/>
    <trip id="veh224" type="veh_passenger" depart="391.43" departLane="best" from="31261348#1" to="431767100#2"/>
    <trip id="veh225" type="veh_passenger" depart="393.18" departLane="best" from="317302445#1" to="151362344#3"/>
    <trip id="veh226" type="veh_passenger" depart="394.93" departLane="best" from="317302446" to="7972372#5"/>
    <trip id="veh227" type="veh_passenger" depart="396.67" departLane="best" from="4346299#2" to="48408550"/>
    <trip id="veh228" type="veh_passenger" depart="398.42" departLane="best" from="7726324#1" to="66833793#3"/>
    <trip id="veh229" type="veh_passenger" depart="400.17" departLane="best" from="30674933#2" to="116581860#0"/>
    <trip id="veh230" type="veh_passenger" depart="401.92" departLane="best" from="29489590#3" to="604998641#1"/>
    <trip id="veh231" type="veh_passenger" depart="403.66" departLane="best" from="7726306#0" to="807334398"/>
    <trip id="veh232" type="veh_passenger" depart="405.41" departLane="best" from="317302445#6" to="5930469#1"/>
    <trip id="veh233" type="veh_passenger" depart="407.16" departLane="best" from="4328781" to="437147507"/>
    <trip id="veh234" type="veh_passenger" depart="408.91" departLane="best" departSpeed="max" from="160685896" to="166226106"/>
    <trip id="veh236" type="veh_passenger" depart="412.40" departLane="best" from="29045205#1" to="45588309#0"/>
    <trip id="veh237" type="veh_passenger" depart="414.15" departLane="best" departSpeed="max" from="312613200#0" to="122150989#0"/>
    <trip id="veh238" type="veh_passenger" depart="415.90" departLane="best" from="355939669#3" to="112538796#3"/>
    <trip id="veh239" type="veh_passenger" depart="417.64" departLane="best" departSpeed="max" from="44618907#0" to="269291945#1"/>
    <trip id="veh240" type="veh_passenger" depart="419.39" departLane="best" from="31053366#0" to="4334160#1"/>
    <trip id="veh242" type="veh_passenger" depart="422.89" departLane="best" from="1117798461#2" to="335563211#0"/>
    <trip id="veh244" type="veh_passenger" depart="426.38" departLane="best" from="151362340#0" to="285582145#3"/>
    <trip id="veh246" type="veh_passenger" depart="429.88" departLane="best" departSpeed="max" from="5990534" to="7712510#5"/>
    <trip id="veh247" type="veh_passenger" depart="431.62" departLane="best" departSpeed="max" from="214257065" to="-490391710#1"/>
    <trip id="veh248" type="veh_passenger" depart="433.37" departLane="best" departSpeed="max" from="-166226109" to="431524808#1"/>
    <trip id="veh249" type="veh_passenger" depart="435.12" departLane="best" from="992011777#3" to="293723001"/>
    <trip id="veh250" type="veh_passenger" depart="436.87" departLane="best" from="4487679#8" to="689777341"/>
    <trip id="veh251" type="veh_passenger" depart="438.61" departLane="best" departSpeed="max" from="807334395" to="14567386#9"/>
    <trip id="veh252" type="veh_passenger" depart="440.36" departLane="best" departSpeed="max" from="-166226109" to="116581860#1"/>
    <trip id="veh253" type="veh_passenger" depart="442.11" departLane="best" departSpeed="max" from="109462896#0" to="4518854#1"/>
    <trip id="veh254" type="veh_passenger" depart="443.86" departLane="best" from="43405578#0" to="166226099#3"/>
    <trip id="veh255" type="veh_passenger" depart="445.60" departLane="best" from="49016408#1" to="685983423"/>
    <trip id="veh256" type="veh_passenger" depart="447.35" departLane="best" from="-116581860#0" to="43759728#2"/>
    <trip id="veh257" type="veh_passenger" depart="449.10" departLane="best" departSpeed="max" from="5935913" to="1082989165#2"/>
    <trip id="veh258" type="veh_passenger" depart="450.85" departLane="best" from="-82567680#2" to="26673370#0"/>
    <trip id="veh259" type="veh_passenger" depart="452.59" departLane="best" from="27452821#2" to="-45316487#0"/>
    <trip id="veh260" type="veh_passenger" depart="454.34" departLane="best" from="807334397#6" to="31053324#0"/>
    <trip id="veh261" type="veh_passenger" depart="456.09" departLane="best" from="542317518#0" to="45588309#0"/>
    <trip id="veh263" type="veh_passenger" depart="459.58" departLane="best" from="7971936#0" to="686214706#0"/>
    <trip id="veh264" type="veh_passenger" depart="461.33" departLane="best" from="7726300#1" to="4363468#0"/>
    <trip id="veh265" type="veh_passenger" depart="463.08" departLane="best" from="1082989165#0" to="859877408"/>
    <trip id="veh266" type="veh_passenger" depart="464.83" departLane="best" departSpeed="max" from="687463490#0" to="-293712003#4"/>
    <trip id="veh268" type="veh_passenger" depart="468.32" departLane="best" from="41699518#0" to="287412176"/>
    <trip id="veh269" type="veh_passenger" depart="470.07" departLane="best" from="7726300#0" to="7648763#2"/>
    <trip id="veh270" type="veh_passenger" depart="471.82" departLane="best" from="80789128#1" to="807334403#7"/>
    <trip id="veh271" type="veh_passenger" depart="473.56" departLane="best" from="44737269#0" to="7712488"/>
    <trip id="veh272" type="veh_passenger" depart="475.31" departLane="best" from="4950798#0" to="32151224#1"/>
    <trip id="veh274" type="veh_passenger" depart="478.81" departLane="best" departSpeed="max" from="238829521#0" to="7642935"/>
    <trip id="veh275" type="veh_passenger" depart="480.55" departLane="best" from="4328607" to="37352453"/>
    <trip id="veh276" type="veh_passenger" depart="482.30" departLane="best" from="32480293#3" to="554230311#1"/>
    <trip id="veh277" type="veh_passenger" depart="484.05" departLane="best" departSpeed="max" from="238829521#0" to="7732065#1"/>
    <trip id="veh278" type="veh_passenger" depart="485.80" departLane="best" from="7648760#3" to="-5935913"/>
    <trip id="veh280" type="veh_passenger" depart="489.29" departLane="best" from="355153823#8" to="43759849"/>
    <trip id="veh282" type="veh_passenger" depart="492.79" departLane="best" from="7726300#2" to="7648750#0"/>
    <trip id="veh284" type="veh_passenger" depart="496.28" departLane="best" from="293712003#4" to="7971559#0"/>
    <trip id="veh285" type="veh_passenger" depart="498.03" departLane="best" from="49016419#1" to="242547871"/>
    <trip id="veh286" type="veh_passenger" depart="499.78" departLane="best" from="-1238944954" to="807334397#1"/>
    <trip id="veh288" type="veh_passenger" depart="503.27" departLane="best" departSpeed="max" from="393196801" to="-651525544#0"/>