<?xml version="1.0" encoding="UTF-8"?>

<!-- generated on 2024-04-11 19:46:15 by Eclipse SUMO netconvert Version 1.19.0
<configuration xmlns:xsi="http://www.w3.org/2001/XMLSchema-instance" xsi:noNamespaceSchemaLocation="http://sumo.dlr.de/xsd/netconvertConfiguration.xsd">

    <input>
        <type-files value="${SUMO_HOME}/data/typemap/osmNetconvert.typ.xml,${SUMO_HOME}/data/typemap/osmNetconvertAerialway.typ.xml"/>
        <osm-files value="osm_bbox.osm.xml.gz"/>
    </input>

    <output>
        <output-file value="osm.net.xml.gz"/>
        <output.street-names value="true"/>
        <output.original-names value="true"/>
        <ptstop-output value="osm_stops.add.xml"/>
        <ptline-output value="osm_ptlines.xml"/>
    </output>

    <projection>
        <proj.utm value="true"/>
    </projection>

    <processing>
        <geometry.remove value="true"/>
        <roundabouts.guess value="true"/>
    </processing>

    <tls_building>
        <tls.discard-simple value="true"/>
        <tls.join value="true"/>
        <tls.guess-signals value="true"/>
        <tls.default-type value="actuated"/>
    </tls_building>

    <ramp_guessing>
        <ramps.guess value="true"/>
    </ramp_guessing>

    <junctions>
        <junctions.join value="true"/>
        <junctions.corner-detail value="5"/>
    </junctions>

    <railway>
        <railway.topology.repair value="true"/>
    </railway>

</configuration>
-->

<additional xmlns:xsi="http://www.w3.org/2001/XMLSchema-instance" xsi:noNamespaceSchemaLocation="http://sumo.dlr.de/xsd/additional_file.xsd">
    <busStop id="-1493565877" name="Príncipe Pío" lane="-119181079#1_0" startPos="0.00" endPos="200.00" friendlyPos="true">
        <access lane="1252080878_0" pos="8.90" length="75.95" friendlyPos="1"/>
        <access lane="1252080882_0" pos="23.32" length="40.00" friendlyPos="1"/>
        <access lane="1252080883#0_0" pos="0.59" length="75.95" friendlyPos="1"/>
        <access lane="31769258#0_0" pos="77.55" length="75.11" friendlyPos="1"/>
        <access lane="344003635_0" pos="89.84" length="68.24" friendlyPos="1"/>
    </busStop>
    <busStop id="-1493565878" name="Príncipe Pío" lane="-156650822_0" startPos="0.00" endPos="200.00" friendlyPos="true">
        <access lane="-31769258#0_0" pos="19.36" length="56.17" friendlyPos="1"/>
        <access lane="1252080882_0" pos="23.32" length="37.49" friendlyPos="1"/>
        <access lane="31769258#0_0" pos="77.12" length="51.37" friendlyPos="1"/>
        <access lane="31769258#1_0" pos="0.00" length="67.89" friendlyPos="1"/>
        <access lane="344003635_0" pos="90.44" length="44.51" friendlyPos="1"/>
    </busStop>
    <busStop id="-22032372" name="Gran Vía" lane="-695991673#0_0" startPos="0.00" endPos="200.00" friendlyPos="true">
        <access lane="-43410312#1_0" pos="0.77" length="1.21" friendlyPos="1"/>
        <access lane="335819317#8_0" pos="1.24" length="7.71" friendlyPos="1"/>
        <access lane="43410312#1_0" pos="7.90" length="3.59" friendlyPos="1"/>
        <access lane="695994639#0_0" pos="7.11" length="8.25" friendlyPos="1"/>
        <access lane="695994641#0_0" pos="1.07" length="6.79" friendlyPos="1"/>
    </busStop>
    <busStop id="-255881693" name="Rubén Darío" lane="-695991673#0_0" startPos="1805.46" endPos="2005.46" friendlyPos="true"/>
    <busStop id="-25903354" name="Sevilla" lane="-442950301#0_0" startPos="544.46" endPos="744.46" friendlyPos="true">
        <access lane="1217099058#2_0" pos="269.89" length="28.22" friendlyPos="1"/>
        <access lane="1217099058#5_0" pos="48.52" length="13.94" friendlyPos="1"/>
        <access lane="391707790#1_0" pos="182.85" length="10.46" friendlyPos="1"/>
        <access lane="626430932#2_0" pos="12.38" length="8.54" friendlyPos="1"/>
        <access lane="79638493_0" pos="17.46" length="5.41" friendlyPos="1"/>
    </busStop>
    <busStop id="-25903355" name="Banco de España" lane="-442950301#0_0" startPos="995.21" endPos="1195.21" friendlyPos="true">
        <access lane="112538828#3_0" pos="14.32" length="18.47" friendlyPos="1"/>
        <access lane="336635020#5_0" pos="13.98" length="32.75" friendlyPos="1"/>
        <access lane="336635029_0" pos="64.48" length="0.94" friendlyPos="1"/>
        <access lane="336635034#9_0" pos="51.03" length="34.20" friendlyPos="1"/>
        <access lane="4346299#2_0" pos="45.41" length="15.88" friendlyPos="1"/>
    </busStop>
    <busStop id="-25903356" name="Retiro" lane="-442950301#0_0" startPos="1735.82" endPos="1935.82" friendlyPos="true">
        <access lane="321449158_0" pos="1.16" length="0.39" friendlyPos="1"/>
        <access lane="321449159#0_0" pos="56.05" length="6.69" friendlyPos="1"/>
        <access lane="321449159#1_0" pos="0.00" length="6.81" friendlyPos="1"/>
        <access lane="437147506#1_0" pos="133.98" length="24.13" friendlyPos="1"/>
        <access lane="462216281#2_0" pos="78.53" length="24.53" friendlyPos="1"/>
    </busStop>
    <busStop id="-25906279" name="Chueca" lane="-695991673#0_0" startPos="396.49" endPos="596.49" friendlyPos="true">
        <access lane="4291307#0_0" pos="3.87" length="44.10" friendlyPos="1"/>
        <access lane="4291307#1_0" pos="25.22" length="24.13" friendlyPos="1"/>
        <access lane="4291307#2_0" pos="51.62" length="13.66" friendlyPos="1"/>
        <access lane="7972372#1_0" pos="44.20" length="48.35" friendlyPos="1"/>
        <access lane="7972372#2_0" pos="3.87" length="44.10" friendlyPos="1"/>
    </busStop>
    <busStop id="-25935011" name="San Bernardo" lane="-442950303_0" startPos="1635.98" endPos="1835.98" friendlyPos="true">
        <access lane="1240524430#0_0" pos="0.00" length="241.53" friendlyPos="1"/>
    </busStop>
    <busStop id="-26066629" name="Noviciado" lane="-442950303_0" startPos="2297.33" endPos="2497.33" friendlyPos="true">
        <access lane="-422999624#0_0" pos="25.43" length="1.42" friendlyPos="1"/>
        <access lane="-422999624#2_0" pos="35.54" length="53.46" friendlyPos="1"/>
        <access lane="1240524430#0_0" pos="505.93" length="12.38" friendlyPos="1"/>
        <access lane="422999624#0_0" pos="108.93" length="6.22" friendlyPos="1"/>
        <access lane="4308074#8_0" pos="18.33" length="46.95" friendlyPos="1"/>
    </busStop>
    <busStop id="-26068173" name="Santo Domingo" lane="-442950303_0" startPos="2700.63" endPos="2900.63" friendlyPos="true">
        <access lane="-239499978#0_0" pos="37.27" length="7.01" friendlyPos="1"/>
        <access lane="-30993228#1_0" pos="0.00" length="5.65" friendlyPos="1"/>
        <access lane="-30993228#2_0" pos="0.00" length="1.85" friendlyPos="1"/>
        <access lane="30993228#2_0" pos="0.20" length="6.17" friendlyPos="1"/>
        <access lane="409114851#5_0" pos="37.38" length="5.23" friendlyPos="1"/>
    </busStop>
    <busStop id="-2609596245" name="Laguna" lane="-549229849_0" startPos="0.00" endPos="200.00" friendlyPos="true"/>
    <busStop id="-265067381" name="Puerta del Ángel" lane="-549229849_0" startPos="2529.05" endPos="2729.05" friendlyPos="true">
        <access lane="28701928#0_0" pos="1043.74" length="229.47" friendlyPos="1"/>
    </busStop>
    <busStop id="-265067803" name="Alto de Extremadura" lane="-549229849_0" startPos="1482.93" endPos="1682.93" friendlyPos="true">
        <access lane="28701928#0_0" pos="0.00" length="146.56" friendlyPos="1"/>
    </busStop>
    <busStop id="-265068165" name="Lucero" lane="-549229849_0" startPos="556.57" endPos="756.57" friendlyPos="true"/>
    <busStop id="-299515114" name="Alvarado" lane="-511288266#0_0" startPos="3501.07" endPos="3701.07" friendlyPos="true"/>
    <busStop id="-299644680" name="Estrecho" lane="-511288266#0_0" startPos="3995.91" endPos="4195.91" friendlyPos="true"/>
    <busStop id="-324376827" name="Quevedo" lane="-442950303_0" startPos="1332.47" endPos="1532.47" friendlyPos="true"/>
    <busStop id="-324391382" name="Ríos Rosas" lane="-511288266#0_0" startPos="2519.57" endPos="2719.57" friendlyPos="true"/>
    <busStop id="-324391956" name="Iglesia" lane="-511288266#0_0" startPos="1781.73" endPos="1981.73" friendlyPos="true"/>
    <busStop id="-4405988107" name="Sol" lane="-442950301#0_0" startPos="248.15" endPos="448.15" friendlyPos="true">
        <access lane="1169291962_0" pos="5.25" length="10.07" friendlyPos="1"/>
        <access lane="319338109_0" pos="6.48" length="2.61" friendlyPos="1"/>
        <access lane="549535248_0" pos="0.28" length="4.67" friendlyPos="1"/>
        <access lane="549535253#3_0" pos="12.36" length="9.58" friendlyPos="1"/>
        <access lane="549535253#4_0" pos="0.89" length="3.58" friendlyPos="1"/>
    </busStop>
    <busStop id="-4405988225" name="Príncipe Pío" lane="-442950334_0" startPos="713.20" endPos="913.20" friendlyPos="true">
        <access lane="119181067_0" pos="15.12" length="20.18" friendlyPos="1"/>
        <access lane="119181122#0_0" pos="0.00" length="23.48" friendlyPos="1"/>
        <access lane="45084908#0_0" pos="0.00" length="13.08" friendlyPos="1"/>
        <access lane="71233319#1_0" pos="5.64" length="22.39" friendlyPos="1"/>
        <access lane="71233319#2_0" pos="9.57" length="5.16" friendlyPos="1"/>
    </busStop>
    <busStop id="-4405991654" name="Ópera" lane="-442950303_0" startPos="3110.50" endPos="3310.50" friendlyPos="true">
        <access lane="1240524439_0" pos="28.45" length="3.10" friendlyPos="1"/>
        <access lane="1240524440_0" pos="0.00" length="7.01" friendlyPos="1"/>
        <access lane="320898239#0_0" pos="0.00" length="6.23" friendlyPos="1"/>
        <access lane="320898241_0" pos="1.20" length="1.34" friendlyPos="1"/>
        <access lane="866662396_0" pos="5.95" length="12.41" friendlyPos="1"/>
    </busStop>
    <busStop id="-5299216970" name="Valdecarros" lane="-548531500_0" startPos="55.17" endPos="255.17" friendlyPos="true"/>
    <busStop id="-5299216972" name="Las Suertes" lane="-548531500_0" startPos="767.39" endPos="967.39" friendlyPos="true"/>
    <busStop id="-5299216977" name="La Gavia" lane="-548531500_0" startPos="2077.28" endPos="2277.28" friendlyPos="true"/>
    <busStop id="-5299216982" name="Congosto" lane="-548531500_0" startPos="2758.72" endPos="2958.72" friendlyPos="true"/>
    <busStop id="-5299216985" name="Villa de Vallecas" lane="-548531500_0" startPos="3605.91" endPos="3805.91" friendlyPos="true"/>
    <busStop id="-5299216987" name="Sierra de Guadalupe" lane="-548531500_0" startPos="4094.10" endPos="4294.10" friendlyPos="true"/>
    <busStop id="-5299216997" name="Miguel Hernández" lane="-548531500_0" startPos="5586.22" endPos="5786.22" friendlyPos="true"/>
    <busStop id="-5299217000" name="Alto del Arenal" lane="-548531500_0" startPos="6131.86" endPos="6331.86" friendlyPos="true"/>
    <busStop id="-5299217006" name="Buenos Aires" lane="-548531500_0" startPos="6848.06" endPos="7048.06" friendlyPos="true"/>
    <busStop id="-5299217008" name="Portazgo" lane="-548531500_0" startPos="7339.67" endPos="7539.67" friendlyPos="true"/>
    <busStop id="-5299217010" name="Nueva Numancia" lane="-548531500_0" startPos="7914.41" endPos="8114.41" friendlyPos="true"/>
    <busStop id="-5299217011" name="Puente de Vallecas" lane="-548531500_0" startPos="8342.47" endPos="8542.47" friendlyPos="true"/>
    <busStop id="-5299217013" name="Pacífico" lane="-548531500_0" startPos="9096.01" endPos="9296.01" friendlyPos="true"/>
    <busStop id="-5299217017" name="Menéndez Pelayo" lane="-548531500_0" startPos="9588.29" endPos="9788.29" friendlyPos="true"/>
    <busStop id="-5299219122" name="Atocha" lane="-548531500_0" startPos="10288.44" endPos="10488.44" friendlyPos="true">
        <access lane="23076536#1_0" pos="161.41" length="265.39" friendlyPos="1"/>
        <access lane="373776805#3_0" pos="141.33" length="175.72" friendlyPos="1"/>
        <access lane="393196806#0_0" pos="0.00" length="58.76" friendlyPos="1"/>
        <access lane="666968470_0" pos="203.81" length="95.35" friendlyPos="1"/>
        <access lane="685989648#0_0" pos="0.00" length="192.36" friendlyPos="1"/>
    </busStop>
    <busStop id="-5299219127" name="Estación del Arte" lane="-548531500_0" startPos="10603.05" endPos="10803.05" friendlyPos="true">
        <access lane="1217822478_0" pos="44.87" length="68.51" friendlyPos="1"/>
        <access lane="453750022#1_0" pos="293.90" length="25.43" friendlyPos="1"/>
        <access lane="453750022#2_0" pos="0.00" length="41.45" friendlyPos="1"/>
        <access lane="453750022#3_0" pos="0.00" length="70.44" friendlyPos="1"/>
        <access lane="453750025_0" pos="0.00" length="42.17" friendlyPos="1"/>
    </busStop>
    <busStop id="-5299219130" name="Antón Martín" lane="-548531500_0" startPos="11361.44" endPos="11561.44" friendlyPos="true">
        <access lane="319620192_0" pos="0.00" length="47.59" friendlyPos="1"/>
        <access lane="319620193_0" pos="0.00" length="48.93" friendlyPos="1"/>
        <access lane="423232043_0" pos="29.48" length="11.84" friendlyPos="1"/>
        <access lane="48345473#2_0" pos="33.23" length="13.65" friendlyPos="1"/>
        <access lane="48345480#0_0" pos="7.30" length="2.99" friendlyPos="1"/>
    </busStop>
    <busStop id="-5299219185" name="Tirso de Molina" lane="-548531500_0" startPos="11799.49" endPos="11999.49" friendlyPos="true">
        <access lane="1109771619_0" pos="35.59" length="25.65" friendlyPos="1"/>
        <access lane="1176321083_0" pos="39.12" length="3.23" friendlyPos="1"/>
        <access lane="1176321084_0" pos="0.00" length="30.85" friendlyPos="1"/>
        <access lane="1176321087_0" pos="38.88" length="7.11" friendlyPos="1"/>
        <access lane="554357604#0_0" pos="30.42" length="13.00" friendlyPos="1"/>
    </busStop>
    <busStop id="-5299219187" name="Sol" lane="-548531500_0" startPos="12472.12" endPos="12672.12" friendlyPos="true">
        <access lane="1000016481#0_0" pos="13.98" length="18.55" friendlyPos="1"/>
        <access lane="1000016481#1_0" pos="5.83" length="11.49" friendlyPos="1"/>
        <access lane="1169291963#1_0" pos="12.11" length="0.49" friendlyPos="1"/>
        <access lane="549535246#3_0" pos="13.40" length="14.35" friendlyPos="1"/>
        <access lane="549535246#4_0" pos="0.00" length="19.56" friendlyPos="1"/>
    </busStop>
    <busStop id="-5299219188" name="Gran Vía" lane="-548531500_0" startPos="12727.00" endPos="12927.00" friendlyPos="true">
        <access lane="334102282#9_0" pos="5.52" length="2.73" friendlyPos="1"/>
        <access lane="695993032#1_0" pos="0.00" length="6.34" friendlyPos="1"/>
        <access lane="695993045#1_0" pos="0.20" length="5.18" friendlyPos="1"/>
        <access lane="695994125#0_0" pos="0.82" length="1.98" friendlyPos="1"/>
        <access lane="695994634_0" pos="3.82" length="6.66" friendlyPos="1"/>
    </busStop>
    <busStop id="-5299219189" name="Tribunal" lane="-548531514#0_0" startPos="584.33" endPos="784.33" friendlyPos="true">
        <access lane="685983425#0_0" pos="0.00" length="197.01" friendlyPos="1"/>
    </busStop>
    <busStop id="-5299219190" name="Bilbao" lane="-548531514#0_0" startPos="1051.24" endPos="1251.24" friendlyPos="true"/>
    <busStop id="-5299219193" name="Iglesia" lane="-548531514#0_0" startPos="1780.38" endPos="1980.38" friendlyPos="true"/>
    <busStop id="-5299219194" name="Ríos Rosas" lane="-548531514#0_0" startPos="2517.85" endPos="2717.85" friendlyPos="true"/>
    <busStop id="-5299219195" name="Cuatro Caminos" lane="-548531514#0_0" startPos="3017.67" endPos="3217.67" friendlyPos="true"/>
    <busStop id="-5299219197" name="Alvarado" lane="-548531514#0_0" startPos="3500.32" endPos="3700.32" friendlyPos="true"/>
    <busStop id="-5299219209" name="Estrecho" lane="-548531514#0_0" startPos="3995.65" endPos="4195.65" friendlyPos="true"/>
    <busStop id="-5299314584" name="Tribunal" lane="-511288266#0_0" startPos="585.44" endPos="785.44" friendlyPos="true">
        <access lane="685983425#0_0" pos="0.00" length="196.25" friendlyPos="1"/>
    </busStop>
    <busStop id="-5299314586" name="Bilbao" lane="-511288266#0_0" startPos="1050.96" endPos="1250.96" friendlyPos="true"/>
    <busStop id="-5299314589" name="Cuatro Caminos" lane="-511288266#0_0" startPos="3019.53" endPos="3219.53" friendlyPos="true"/>
    <busStop id="-5303043466" name="Gran Vía" lane="-695991674#0_0" startPos="0.00" endPos="200.00" friendlyPos="true">
        <access lane="-43410312#1_0" pos="1.04" length="5.90" friendlyPos="1"/>
        <access lane="335819317#8_0" pos="1.30" length="0.60" friendlyPos="1"/>
        <access lane="695994637_0" pos="4.96" length="5.98" friendlyPos="1"/>
        <access lane="695994639#0_0" pos="5.51" length="1.56" friendlyPos="1"/>
        <access lane="865912093_0" pos="0.00" length="6.86" friendlyPos="1"/>
    </busStop>
    <busStop id="-5303043472" name="Chueca" lane="-695991674#0_0" startPos="402.26" endPos="602.26" friendlyPos="true">
        <access lane="4291307#0_0" pos="10.47" length="42.89" friendlyPos="1"/>
        <access lane="4291307#1_0" pos="24.94" length="14.17" friendlyPos="1"/>
        <access lane="4291307#2_0" pos="52.29" length="23.59" friendlyPos="1"/>
        <access lane="7972372#2_0" pos="10.47" length="42.89" friendlyPos="1"/>
        <access lane="7972372#3_0" pos="0.00" length="44.70" friendlyPos="1"/>
    </busStop>
    <busStop id="-5303043473" name="Alonso Martínez" lane="-695991674#0_0" startPos="966.37" endPos="1166.37" friendlyPos="true">
        <access lane="27827429#2_0" pos="241.36" length="339.29" friendlyPos="1"/>
    </busStop>
    <busStop id="-5303127355" name="Alonso Martínez" lane="-695991673#0_0" startPos="961.96" endPos="1161.96" friendlyPos="true">
        <access lane="27827429#2_0" pos="241.36" length="344.99" friendlyPos="1"/>
    </busStop>
    <busStop id="-5303173603" name="Lavapiés" lane="-548977485#1_0" startPos="269.75" endPos="469.75" friendlyPos="true">
        <access lane="1257222748#0_0" pos="6.80" length="95.71" friendlyPos="1"/>
        <access lane="1257222748#1_0" pos="11.04" length="97.56" friendlyPos="1"/>
        <access lane="355153823#0_0" pos="0.00" length="93.64" friendlyPos="1"/>
        <access lane="4328770#3_0" pos="150.31" length="96.51" friendlyPos="1"/>
        <access lane="7972753#1_0" pos="54.89" length="96.78" friendlyPos="1"/>
    </busStop>
    <busStop id="-5303173605" name="Sol" lane="-548977485#1_0" startPos="1263.03" endPos="1463.03" friendlyPos="true">
        <access lane="549535246#1_0" pos="30.87" length="17.08" friendlyPos="1"/>
        <access lane="549535251#1_0" pos="10.86" length="13.74" friendlyPos="1"/>
        <access lane="549535251#2_0" pos="0.00" length="20.42" friendlyPos="1"/>
        <access lane="549535253#1_0" pos="38.26" length="16.87" friendlyPos="1"/>
        <access lane="549535253#2_0" pos="0.00" length="17.93" friendlyPos="1"/>
    </busStop>
    <busStop id="-5303173607" name="Plaza de España" lane="-548977485#0_0" startPos="698.24" endPos="898.24" friendlyPos="true">
        <access lane="1005996835_0" pos="21.99" length="34.58" friendlyPos="1"/>
        <access lane="1005996837#0_0" pos="9.14" length="32.07" friendlyPos="1"/>
        <access lane="1005996837#1_0" pos="0.00" length="31.37" friendlyPos="1"/>
        <access lane="238829521#2_0" pos="23.85" length="29.41" friendlyPos="1"/>
        <access lane="27540826#2_0" pos="23.14" length="6.94" friendlyPos="1"/>
    </busStop>
    <busStop id="-5303173608" name="Ventura Rodríguez" lane="-548977485#0_0" startPos="1056.90" endPos="1256.90" friendlyPos="true"/>
    <busStop id="-5303173609" name="Argüelles" lane="-548977485#0_0" startPos="1615.93" endPos="1815.93" friendlyPos="true"/>
    <busStop id="-5303173613" name="Moncloa" lane="-548977485#0_0" startPos="1978.79" endPos="2178.79" friendlyPos="true"/>
    <busStop id="-5303271992" name="Cuatro Caminos" lane="-442950303_0" startPos="0.00" endPos="200.00" friendlyPos="true"/>
    <busStop id="-5303271994" name="Canal" lane="-442950303_0" startPos="639.68" endPos="839.68" friendlyPos="true"/>
    <busStop id="-5303272012" name="Retiro" lane="-548990702_0" startPos="1871.38" endPos="2071.38" friendlyPos="true">
        <access lane="1021877650_0" pos="154.85" length="27.15" friendlyPos="1"/>
        <access lane="321449158_0" pos="2.39" length="3.21" friendlyPos="1"/>
        <access lane="321449159#0_0" pos="56.05" length="11.35" friendlyPos="1"/>
        <access lane="321449159#1_0" pos="0.00" length="11.19" friendlyPos="1"/>
        <access lane="437147506#1_0" pos="133.74" length="19.11" friendlyPos="1"/>
    </busStop>
    <busStop id="-5303272075" name="Sol" lane="-548990702_0" startPos="382.97" endPos="582.97" friendlyPos="true">
        <access lane="1169291962_0" pos="5.25" length="10.69" friendlyPos="1"/>
        <access lane="319338109_0" pos="5.70" length="6.42" friendlyPos="1"/>
        <access lane="549535248_0" pos="0.00" length="6.75" friendlyPos="1"/>
        <access lane="549535253#3_0" pos="12.36" length="9.37" friendlyPos="1"/>
        <access lane="549535253#4_0" pos="1.21" length="0.38" friendlyPos="1"/>
    </busStop>
    <busStop id="-5303272231" name="Sevilla" lane="-548990702_0" startPos="679.56" endPos="879.56" friendlyPos="true">
        <access lane="1217099058#2_0" pos="269.89" length="27.26" friendlyPos="1"/>
        <access lane="1217099058#5_0" pos="49.25" length="18.21" friendlyPos="1"/>
        <access lane="391707790#1_0" pos="182.10" length="14.71" friendlyPos="1"/>
        <access lane="626430932#2_0" pos="13.04" length="4.24" friendlyPos="1"/>
        <access lane="79638493_0" pos="18.16" length="9.69" friendlyPos="1"/>
    </busStop>
    <busStop id="-5303272236" name="Banco de España" lane="-548990702_0" startPos="1130.31" endPos="1330.31" friendlyPos="true">
        <access lane="112538828#3_0" pos="14.56" length="22.86" friendlyPos="1"/>
        <access lane="336635020#5_0" pos="14.17" length="37.15" friendlyPos="1"/>
        <access lane="336635029_0" pos="64.18" length="5.33" friendlyPos="1"/>
        <access lane="336635034#9_0" pos="50.69" length="29.82" friendlyPos="1"/>
        <access lane="4346299#2_0" pos="45.15" length="11.49" friendlyPos="1"/>
    </busStop>
    <busStop id="-5304749213" name="Ópera" lane="549151323_0" startPos="0.00" endPos="124.53" friendlyPos="true">
        <access lane="122150989#0_0" pos="0.00" length="29.53" friendlyPos="1"/>
        <access lane="31053377#1_0" pos="9.69" length="8.53" friendlyPos="1"/>
        <access lane="345305595#10_0" pos="26.71" length="3.47" friendlyPos="1"/>
        <access lane="345305595#11_0" pos="0.00" length="22.52" friendlyPos="1"/>
        <access lane="7726325_0" pos="50.18" length="20.58" friendlyPos="1"/>
    </busStop>
    <busStop id="-5305486978" name="Príncipe Pío" lane="-549229849_0" startPos="3700.41" endPos="3900.41" friendlyPos="true">
        <access lane="1240317913#0_0" pos="19.93" length="22.80" friendlyPos="1"/>
        <access lane="1240317913#1_0" pos="0.00" length="36.45" friendlyPos="1"/>
        <access lane="1252080880_0" pos="0.00" length="41.25" friendlyPos="1"/>
        <access lane="1252080881_0" pos="13.31" length="23.80" friendlyPos="1"/>
        <access lane="1252080884#1_0" pos="12.61" length="33.74" friendlyPos="1"/>
    </busStop>
    <busStop id="-5970506955" name="Gran Vía - Hortaleza" lane="-32597088_0" startPos="0.00" endPos="15.00" friendlyPos="true" lines="002"/>
    <busStop id="-8473691226" lane="-32151224#6_0" startPos="363.06" endPos="378.06" friendlyPos="true" lines="41"/>
    <busStop id="-9666807257" name="Callao" lane="-548977485#0_0" startPos="95.11" endPos="295.11" friendlyPos="true">
        <access lane="-490391710#1_0" pos="0.00" length="13.71" friendlyPos="1"/>
        <access lane="332069618#1_0" pos="0.00" length="17.98" friendlyPos="1"/>
        <access lane="380472819#1_0" pos="0.00" length="22.08" friendlyPos="1"/>
        <access lane="380472819#4_0" pos="18.79" length="17.52" friendlyPos="1"/>
        <access lane="490391710#1_0" pos="19.43" length="6.08" friendlyPos="1"/>
    </busStop>
    <busStop id="-9727929637" name="Príncipe Pío" lane="-119181155_0" startPos="0.00" endPos="200.00" friendlyPos="true">
        <access lane="-31769258#0_0" pos="18.80" length="73.59" friendlyPos="1"/>
        <access lane="1252080882_0" pos="23.32" length="37.57" friendlyPos="1"/>
        <access lane="1252080883#0_0" pos="4.79" length="75.36" friendlyPos="1"/>
        <access lane="31769258#0_0" pos="77.68" length="68.79" friendlyPos="1"/>
        <access lane="344003635_0" pos="89.75" length="61.92" friendlyPos="1"/>
    </busStop>
    <busStop id="-9727929638" name="Príncipe Pío" lane="-119181131_0" startPos="0.00" endPos="200.00" friendlyPos="true">
        <access lane="-31769258#0_0" pos="19.19" length="62.10" friendlyPos="1"/>
        <access lane="1252080882_0" pos="23.32" length="36.61" friendlyPos="1"/>
        <access lane="31769258#0_0" pos="77.30" length="57.30" friendlyPos="1"/>
        <access lane="31769258#1_0" pos="0.00" length="72.27" friendlyPos="1"/>
        <access lane="344003635_0" pos="90.22" length="50.44" friendlyPos="1"/>
    </busStop>
    <busStop id="10814542230" lane="27926837#2_0" startPos="34.69" endPos="49.69" friendlyPos="true"/>
    <busStop id="11281513836" lane="27926837#2_0" startPos="26.10" endPos="41.10" friendlyPos="true"/>
    <busStop id="1152699021" name="Sol" lane="1037434519_0" startPos="129.31" endPos="329.31" friendlyPos="true" lines="C-3 R-1 C-4">
        <access lane="1217099058#1_0" pos="0.00" length="20.84" friendlyPos="1"/>
        <access lane="1217099058#6_0" pos="28.51" length="14.48" friendlyPos="1"/>
        <access lane="391707790#0_0" pos="0.00" length="19.83" friendlyPos="1"/>
        <access lane="549535246#5_0" pos="32.05" length="15.36" friendlyPos="1"/>
        <access lane="5930472_0" pos="0.70" length="30.18" friendlyPos="1"/>
    </busStop>
    <busStop id="1416248982" lane="48345815#0_0" startPos="37.98" endPos="52.98" friendlyPos="true" lines="26 32 6"/>
    <busStop id="1437056478" lane="7732075_0" startPos="35.07" endPos="50.07" friendlyPos="true" lines="18 23"/>
    <busStop id="1439291737" lane="293723007_0" startPos="110.52" endPos="125.52" friendlyPos="true"/>
    <busStop id="1439703616" name="Jardines de Sabatini" lane="4308590#3_0" startPos="25.71" endPos="40.71" friendlyPos="true"/>
    <busStop id="1439703617" name="Jardines de Sabatini" lane="71808949#3_0" startPos="16.86" endPos="31.86" friendlyPos="true"/>
    <busStop id="1493565877" name="Príncipe Pío" lane="119181079#1_0" startPos="169.96" endPos="369.96" friendlyPos="true">
        <access lane="1252080878_0" pos="8.90" length="75.95" friendlyPos="1"/>
        <access lane="1252080882_0" pos="23.32" length="40.00" friendlyPos="1"/>
        <access lane="1252080883#0_0" pos="0.59" length="75.95" friendlyPos="1"/>
        <access lane="31769258#0_0" pos="77.55" length="75.11" friendlyPos="1"/>
        <access lane="344003635_0" pos="89.84" length="68.24" friendlyPos="1"/>
    </busStop>
    <busStop id="1493565878" name="Príncipe Pío" lane="156650822_0" startPos="278.46" endPos="478.46" friendlyPos="true">
        <access lane="-31769258#0_0" pos="19.36" length="56.17" friendlyPos="1"/>
        <access lane="1252080882_0" pos="23.32" length="37.49" friendlyPos="1"/>
        <access lane="31769258#0_0" pos="77.12" length="51.37" friendlyPos="1"/>
        <access lane="31769258#1_0" pos="0.00" length="67.89" friendlyPos="1"/>
        <access lane="344003635_0" pos="90.44" length="44.51" friendlyPos="1"/>
    </busStop>
    <busStop id="1493565879" name="Príncipe Pío" lane="741727698_0" startPos="0.00" endPos="200.00" friendlyPos="true">
        <access lane="-31769258#0_0" pos="18.76" length="40.30" friendlyPos="1"/>
        <access lane="1252080882_0" pos="23.32" length="42.49" friendlyPos="1"/>
        <access lane="31769258#0_0" pos="77.72" length="35.50" friendlyPos="1"/>
        <access lane="31769258#1_0" pos="0.00" length="56.28" friendlyPos="1"/>
        <access lane="344003635_0" pos="89.94" length="28.63" friendlyPos="1"/>
    </busStop>
    <busStop id="1493715148" lane="7732078_0" startPos="3.70" endPos="18.70" friendlyPos="true" lines="32 65 6"/>
    <busStop id="20953215" lane="45084922#9_0" startPos="68.72" endPos="83.72" friendlyPos="true" lines="N20 573"/>
    <busStop id="21722690" name="Lago" lane="1054025299_0" startPos="0.00" endPos="200.00" friendlyPos="true">
        <access lane="28701928#0_0" pos="553.59" length="616.90" friendlyPos="1"/>
    </busStop>
    <busStop id="21759678" name="Sol" lane="443618649_0" startPos="980.82" endPos="1180.82" friendlyPos="true" lines="L3">
        <access lane="549535246#1_0" pos="32.82" length="17.92" friendlyPos="1"/>
        <access lane="549535251#0_0" pos="10.31" length="19.01" friendlyPos="1"/>
        <access lane="549535251#1_0" pos="9.03" length="12.44" friendlyPos="1"/>
        <access lane="549535253#1_0" pos="38.26" length="18.23" friendlyPos="1"/>
        <access lane="549535253#2_0" pos="0.00" length="17.33" friendlyPos="1"/>
    </busStop>
    <busStop id="21759690" name="La Latina" lane="695991673#2_0" startPos="1484.48" endPos="1684.48" friendlyPos="true">
        <access lane="-398751337#2_0" pos="37.94" length="4.06" friendlyPos="1"/>
        <access lane="319636961_0" pos="6.83" length="25.77" friendlyPos="1"/>
        <access lane="398751337#1_0" pos="39.49" length="0.74" friendlyPos="1"/>
        <access lane="4328605#0_0" pos="55.32" length="62.67" friendlyPos="1"/>
        <access lane="4328605#1_0" pos="0.00" length="64.76" friendlyPos="1"/>
    </busStop>
    <busStop id="21956103" name="Lavapiés" lane="443618649_0" startPos="1973.38" endPos="2173.38" friendlyPos="true" lines="L3">
        <access lane="1257222748#0_0" pos="8.36" length="93.36" friendlyPos="1"/>
        <access lane="1257222748#1_0" pos="11.04" length="95.54" friendlyPos="1"/>
        <access lane="355153823#0_0" pos="0.00" length="91.86" friendlyPos="1"/>