<?xml version="1.0" encoding="UTF-8"?>

<!-- generated on 2024-04-11 19:46:21.499172 by osmWebWizard.py v1_19_0+0000-baa66a0f364
<configuration>
    <net-file value="C:\Users\Jaime\Sumo\2024-04-11-19-46-06\osm.net.xml.gz"/>
    <ptlines-file value="C:\Users\Jaime\Sumo\2024-04-11-19-46-06\osm_ptlines.xml"/>
    <ptstops-file value="C:\Users\Jaime\Sumo\2024-04-11-19-46-06\osm_stops.add.xml"/>
    <output-file value="C:\Users\Jaime\Sumo\2024-04-11-19-46-06\osm_pt.rou.xml"/>
    <stopinfos-file value="C:\Users\Jaime\Sumo\2024-04-11-19-46-06\stopinfos.xml"/>
    <routes-file value="C:\Users\Jaime\Sumo\2024-04-11-19-46-06\vehroutes.xml"/>
    <trips-file value="C:\Users\Jaime\Sumo\2024-04-11-19-46-06\trips.trips.xml"/>
    <min-stops value="0"/>
    <extend-to-fringe value="True"/>
    <random-begin value="True"/>
    <seed value="42"/>
    <ignore-errors value="True"/>
    <vtype-prefix value="pt_"/>
    <verbose value="True"/>
</configuration>
-->

<routes xmlns:xsi="http://www.w3.org/2001/XMLSchema-instance" xsi:noNamespaceSchemaLocation="http://sumo.dlr.de/xsd/routes_file.xsd">
    <vType id="pt_bus" vClass="bus"/>
    <vType id="pt_tram" vClass="tram"/>
    <vType id="pt_train" vClass="rail"/>
    <vType id="pt_subway" vClass="rail_urban"/>
    <vType id="pt_light_rail" vClass="rail_urban"/>
    <vType id="pt_monorail" vClass="c"/>
    <vType id="pt_trolleybus" vClass="bus"/>
    <vType id="pt_minibus" vClass="bus"/>
    <vType id="pt_share_taxi" vClass="taxi"/>
    <vType id="pt_aerialway" vClass="rail_urban" length="2.5" width="2" personCapacity="4"/>
    <vType id="pt_ferry" vClass="ship"/>
    <route id="pt_train_MD_18061:0" edges="119181079#0 119181079#1" >
        <stop busStop="1493565877" duration="20" until="90.0"/> <!-- Príncipe Pío -->
    </route>
    <route id="pt_bus_545:1" edges="511895834#0" >
        <stop busStop="5006352934" duration="20" until="31.0"/> <!-- None -->
    </route>
    <route id="pt_bus_146:0" color="0,114,206" edges="269291945#2" >
        <stop busStop="3428239936" duration="20" until="35.0"/> <!-- None -->
    </route>
    <route id="pt_bus_545:0" edges="511895834#0 511895834#1 587589755#0 7642952#2 -293723007 -198644582 -293723001 -293722997 45588309#0 45588309#2 45588309#3 380275223 380275226 116581860#0 116581860#1" >
        <stop busStop="5006352934" duration="20" until="31.0"/> <!-- None -->
    </route>
    <route id="pt_train_RE_18009:0" edges="119181079#0 119181079#1" >
        <stop busStop="1493565877" duration="20" until="115.0"/> <!-- Príncipe Pío -->
    </route>
    <route id="pt_bus_133:0" color="0,114,206" edges="554359457 239499978#1 -82280716#1 -82280716#0 7642939#0 7642939#1 7642939#2 7642939#3 7642939#4 7642939#5 7642939#7 -651525544#0 -4328841#5 545103682#0 545103682#1 238829520#0 238829520#1" >
        <stop busStop="2472773304" duration="20" until="34.0"/> <!-- None -->
    </route>
    <route id="pt_bus_133:1" color="0,114,206" edges="238829521#0 238829521#2 545103684#0 545103684#1 4328841#1 651525544#0 104799919#0 839411286#1 30993228#1 30993228#2" >
    </route>
    <route id="pt_bus_523:0" color="74,183,71" edges="941581922 941560401 941581923 293717620 251971165" >
        <stop busStop="8770134602" duration="20" until="53.0"/> <!-- Intercambiador Príncipe Pío - Dársena 12 -->
    </route>
    <route id="pt_bus_581:0" color="74,183,71" edges="941560393 941581922 941560401 941581923 293717620 251971165" >
        <stop busStop="8719540977" duration="20" until="43.0"/> <!-- Intercambiador Príncipe Pío - Dársena 5 -->
    </route>
    <route id="pt_bus_581:1" color="74,183,71" edges="28682154 28682317 45085114 941560395 941560393" >
        <stop busStop="8719417517" duration="20" until="125.0"/> <!-- Intercambiador Príncipe Pío - Dársena 1 -->
    </route>
    <route id="pt_bus_581:2" color="74,183,71" edges="28682154 28682317 45085114 941560395 941560393" >
        <stop busStop="8719417517" duration="20" until="158.0"/> <!-- Intercambiador Príncipe Pío - Dársena 1 -->
    </route>
    <route id="pt_bus_581:3" color="74,183,71" edges="941560393 941581922 941560401 941581923 293717620 251971165" >
        <stop busStop="8719540977" duration="20" until="68.0"/> <!-- Intercambiador Príncipe Pío - Dársena 5 -->
    </route>
    <route id="pt_bus_551:0" color="74,183,71" edges="941560394#1 941560405#1 45085212 941581923 293717620 251971165" >
        <stop busStop="8719540982" duration="20" until="45.0"/> <!-- Intercambiador Príncipe Pío - Dársena 22 -->
    </route>
    <route id="pt_bus_147:0" color="0,114,206" edges="422999624#0 422999624#1 506195848#0 506195848#1 293712003#0 293712003#1 293712003#3 293712003#4 293712003#5 30993228#1 30993228#2 554359457 239499978#1 45757393 4487153 31053391 269291945#0 269291945#1 269291945#2" >
    </route>
    <route id="pt_bus_39:0" color="0,114,206" edges="27926837#2" >
        <stop busStop="10814542230" duration="20" until="41.0"/> <!-- None -->
    </route>
    <route id="pt_train_MD_18063:0" edges="119181079#0 119181079#1" >
        <stop busStop="1493565877" duration="20" until="149.0"/> <!-- Príncipe Pío -->
    </route>
    <route id="pt_bus_551:1" color="74,183,71" edges="28682154 28682317 45085114 941560395 941560393" >
        <stop busStop="8719417518" duration="20" until="180.0"/> <!-- Intercambiador Príncipe Pío - Dársena 2 -->
    </route>
    <route id="pt_bus_551:4" color="74,183,71" edges="941560394#1 941560405#1 45085212 941581923 293717620 251971165" >
        <stop busStop="8719540982" duration="20" until="78.0"/> <!-- Intercambiador Príncipe Pío - Dársena 22 -->
    </route>
    <route id="pt_bus_28:0" color="0,114,206" edges="179267058 43407376 29975003 809156092#0 809156092#1 321307754#0 461144181 554357601" >
        <stop busStop="26485800" duration="20" until="90.0"/> <!-- None -->
    </route>
    <route id="pt_bus_147:1" color="0,114,206" edges="269291945#2 -335713716#0 -269291945#1 -269291945#0 45757392 -239499978#1 -239499978#0 -30993228#2 -30993228#1 -293712003#5 -293712003#4 -293712003#3 -293712003#2 -293712003#0 -506195848#1 -506195848#0 -422999624#2 -422999624#0" >
        <stop busStop="5321927322" duration="20" until="41.0"/> <!-- None -->
    </route>
    <route id="pt_bus_495:1" color="74,183,71" edges="941560393 941581922 941560401 941581923 293717620 251971165" >
        <stop busStop="8719540975" duration="20" until="73.0"/> <!-- Intercambiador Príncipe Pío - Dársena 7 -->
    </route>
    <route id="pt_bus_28:1" color="0,114,206" edges="554357601 910599751 43405576#0 43405576#1 43405578#0 131443349 43405579#0 43405579#2 43405580#0 43405580#1 29419688 437147506#1 44360624#1 43405581#0 43405581#1 437147507" >
        <stop busStop="26485800" duration="20" until="39.0"/> <!-- None -->
    </route>
    <route id="pt_bus_551:2" color="74,183,71" edges="28682154 28682317 45085114 941560395 941560393" >
        <stop busStop="8719417518" duration="20" until="214.0"/> <!-- Intercambiador Príncipe Pío - Dársena 2 -->
    </route>
    <route id="pt_bus_17:1" color="0,114,206" edges="553501872 4263086#0 41699453#1 41699453#2 398751337#0 398751337#1 398751337#3 690824245 130468268#1 -909029029#2 -909029029#0 -4346292#7 -4346292#6 -4346292#5 -4346292#4 -4346292#1" >
        <stop busStop="5342725022" duration="20" until="42.0"/> <!-- None -->
    </route>
    <route id="pt_bus_17:0" color="0,114,206" edges="4346292#0 4346292#3 4346292#5 4346292#6 4346292#7 4346292#12 909029029#1 -130468268#1 -690824245 -398751337#3 -398751337#2 -398751337#0 -41699453#2 -41699453#1 41699477#1 554505594 7732075 553501872" >
        <stop busStop="8422641941" duration="20" until="48.0"/> <!-- None -->
    </route>
    <route id="pt_bus_44:1" color="0,114,206" edges="238829521#0 238829521#2 545103684#0 545103684#1 4328841#1 651525544#0 104799919#0 839411286#1 30993228#1 30993228#2 554359457" >
    </route>
    <route id="pt_bus_35:1" color="0,114,206" edges="554505594 41699518#0 31262320#1 31262320#2 4328609 4328605#0 4328605#1 398751337#3 690824245 130468268#1 -909029029#2 -909029029#0 -4346292#7 -4346292#6 -4346292#5 -4346292#4 -4346292#1" >
        <stop busStop="5351138581" duration="20" until="34.0"/> <!-- None -->
    </route>
    <route id="pt_bus_551:3" color="74,183,71" edges="28682154 28682317 45085114 941560395 941560393" >
        <stop busStop="8719417518" duration="20" until="246.0"/> <!-- Intercambiador Príncipe Pío - Dársena 2 -->
    </route>
    <route id="pt_bus_18:0" color="0,114,206" edges="7732075 553501872 4263086#0 41699453#1 41699453#2 398751337#0 398751337#1 398751337#3 690824245 130468268#1 -909029029#2 -909029029#0 -4346292#7 -4346292#6 -4346292#5 -4346292#4 -4346292#1" >
        <stop busStop="1437056478" duration="20" until="41.0"/> <!-- None -->
    </route>
    <route id="pt_bus_36:0" color="0,114,206" edges="44704759#0 44704759#1 44704759#2 44704759#3 44704760#0 44704760#1 44704760#2 44704760#3 44704760#4 45588309#0 45588309#2 45588309#3 380275223 380275226 116581860#0 116581860#1" >
        <stop busStop="332054667" duration="20" until="41.0"/> <!-- None -->
    </route>
    <route id="pt_bus_26:1" color="0,114,206" edges="554357604#0 70955584#0 70955584#1 70955584#2 4328769 423638485 686213118 423232043 48345480#0 48345480#1 320668245#0 82567675 82567680#0 82567676 82567669 1126367770 48345824 1225399704#0 1225399704#2" >
        <stop busStop="5350038443" duration="20" until="34.0"/> <!-- None -->
    </route>
    <route id="pt_bus_18:1" color="0,114,206" edges="4346292#0 4346292#3 4346292#5 4346292#6 4346292#7 4346292#12 909029029#1 -130468268#1 -690824245 -398751337#3 -398751337#2 -398751337#0 -41699453#2 -41699453#1 41699477#1 554505594 7732075" >
        <stop busStop="8422641941" duration="20" until="79.0"/> <!-- None -->
    </route>
    <route id="pt_bus_32:1" color="0,114,206" edges="43797348#0 659404748 48345815#0 48345815#3 -1126367770 -82567669 -82567676 -82567680#2 -82567675 -320668245#0 48345473#0 48345473#2 686213116 423231391#0 423231391#4 423231391#5 423231391#6 685983423 30650268#0 7732078" >
        <stop busStop="1416248982" duration="20" until="64.0"/> <!-- None -->
    </route>
    <route id="pt_bus_495:0" color="74,183,71" edges="28682154 28682317 45085114 941560395 941560393" >
        <stop busStop="8719540975" duration="20" until="284.0"/> <!-- Intercambiador Príncipe Pío - Dársena 7 -->
    </route>
    <route id="pt_bus_495(a):0" color="74,183,71" edges="941560393 941581922 941560401 941581923 293717620 251971165" >
        <stop busStop="8719540975" duration="20" until="106.0"/> <!-- Intercambiador Príncipe Pío - Dársena 7 -->
    </route>
    <route id="pt_bus_44:0" color="0,114,206" edges="554359457 239499978#1 -82280716#1 -82280716#0 7642939#0 7642939#1 7642939#2 7642939#3 7642939#4 7642939#5 7642939#7 -651525544#0 -4328841#5 545103682#0 545103682#1 238829520#0 238829520#1" >
        <stop busStop="5350055328" duration="20" until="40.0"/> <!-- None -->
    </route>
    <route id="pt_train_C-8a:0" color="118,119,122" edges="4812007 1037434514 1037434512" >
        <stop busStop="4999319331" duration="20" until="211.0"/> <!-- Recoletos -->
    </route>
    <route id="pt_train_C-4:0" color="0,40,156" edges="695991680 695991678" >
        <stop busStop="3660257614" duration="20" until="148.0"/> <!-- Sol -->
    </route>
    <route id="pt_train_C-8a:1" color="160,160,160" edges="1037434513 1037434515 197483308" >
        <stop busStop="4999319330" duration="20" until="169.0"/> <!-- Recoletos -->
    </route>
    <route id="pt_bus_32:0" color="0,114,206" edges="7732078 70955486#0 70955486#1 31262334#0 31262334#1 31262334#2 31262349#1 554357604#0 70955584#0 70955584#1 70955584#2 4328769 423638485 686213118 423232043 48345480#0 48345480#1 320668245#0 82567675 82567680#0 82567676 82567669 1126367770 48345824 1225399704#0 1225399704#2" >
        <stop busStop="1493715148" duration="20" until="37.0"/> <!-- None -->
    </route>
    <route id="pt_bus_60:1" color="0,114,206" edges="4346292#0 4346292#3 4346292#5 4346292#6 4346292#7 4346292#12" >
        <stop busStop="8440470099" duration="20" until="109.0"/> <!-- None -->
    </route>
    <route id="pt_bus_36:1" color="0,114,206" edges="-116581860#1 -116581860#0 -380275226 -380275223 -45588309#4 -45588309#2 -45588309#1 1054368317#1 40933501#0 40933501#1 32480293#1 32480293#2 32480293#3 32480293#4 32480293#5 32480293#6 32480293#7" >
        <stop busStop="8423406977" duration="20" until="127.0"/> <!-- None -->
    </route>
    <route id="pt_bus_26:0" color="0,114,206" edges="43797348#0 659404748 48345815#0 48345815#3 -1126367770 -82567669 -82567676 -82567680#2 -82567675 -320668245#0 48345473#0 48345473#2 686213116 423231391#0 423231391#4 423231391#5 423231391#6 685983423 30650268#0 66835311#0 70955486#0 70955486#1 31262334#0 31262334#1 31262334#2 31262349#1" >
        <stop busStop="1416248982" duration="20" until="48.0"/> <!-- None -->
    </route>
    <route id="pt_bus_35:0" color="0,114,206" edges="4346292#0 4346292#3 4346292#5 4346292#6 4346292#7 4346292#12 909029029#1 -130468268#1 -690824245 -398751337#3 -398751337#2 -398751337#0 -41699453#2 -41699453#1 41699477#1" >
        <stop busStop="8422641941" duration="20" until="127.0"/> <!-- None -->
    </route>
    <route id="pt_bus_19:1" color="0,114,206" edges="112538800#0 807334403#0 807334403#1 807334403#3 807334403#4 807334403#5 807334403#7 910599751 43405576#0 43405576#1 43405578#0 131443349 29974669#0 29974669#2 363631641#0 317302446 553113575#0 553113575#1 317302445#0 317302445#1 317302445#2 317302445#4 317302445#5 317302445#6 727972600#0 727972600#3 29974652#0 29974652#1 685989650 685989649 685989646 373776805#0 373776805#1 373776805#3" >
        <stop busStop="5385241329" duration="20" until="72.0"/> <!-- None -->
    </route>
    <route id="pt_bus_23:1" color="0,114,206" edges="7732075 553501872 4263086#0 41699453#1 41699453#2 398751337#0 398751337#1 398751337#3 690824245 130468268#1 -909029029#2 -909029029#0 -4346292#7 -4346292#6 -4346292#5 -4346292#4 -4346292#1" >
        <stop busStop="1437056478" duration="20" until="67.0"/> <!-- None -->
    </route>
    <route id="pt_bus_23:0" color="0,114,206" edges="4346292#0 4346292#3 4346292#5 4346292#6 4346292#7 4346292#12 909029029#1 -130468268#1 -690824245 -398751337#3 -398751337#2 -398751337#0 -41699453#2 -41699453#1 41699477#1 554505594 7732075" >
        <stop busStop="8422641941" duration="20" until="114.0"/> <!-- None -->
    </route>
    <route id="pt_bus_495(a):1" color="74,183,71" edges="28682154 28682317 45085114 941560395 941560393" >
        <stop busStop="8719540975" duration="20" until="321.0"/> <!-- Intercambiador Príncipe Pío - Dársena 7 -->
    </route>
    <route id="pt_bus_150:1" color="0,114,206" edges="112538817#0 112538817#2 44737269#0 44737269#1 458778826#0 458778826#1 458778826#2 243496118#1 907102749 907102748#0 907102748#1 131443348#0 4349010 511895636 1260545323#0 1260545323#1 1260545324 7971496#0 7971496#1 7971496#2 7971496#3 7971496#4 43759728#0 43759728#2 1057894241#0" >
        <stop busStop="8427025374" duration="20" until="77.0"/> <!-- None -->
    </route>
    <route id="pt_bus_31:1" color="0,114,206" edges="553501872 4519456#1 44614882#1 928730847 49016411#0 -7972312#4 -7972312#3 -7972312#2 -7972312#1 -7972312#0 -31309326#4 -31309326#3 -31309326#2 -31309326#1 -689780380 -44885764#6 -44885764#5 -44885764#4 -44885764#3 -44885764#2 -44885764#1 -45316487#2 -45316487#0 -40933501#1 -40933501#0 -1054368317#1 45588309#0 45588309#2 45588309#3 380275223 380275226 116581860#0 116581860#1" >
        <stop busStop="8427149777" duration="20" until="76.0"/> <!-- None -->
    </route>
    <route id="pt_bus_60:0" color="0,114,206" edges="1137958523#0 7972314#0 7972314#2 387437566 387437565 7732894#0 7732894#1 7732894#3 896274305 5927085#0 5927797#1 5927797#2 -131451861 130468268#1 -909029029#2 -909029029#0" >
        <stop busStop="5970484986" duration="20" until="34.0"/> <!-- Gran Vía San Francisco - Águila -->
    </route>
    <route id="pt_bus_148:1" color="0,114,206" edges="1137958523#0 7972314#0 7972314#2 387437566 43410304 7732896 1137958525#0 1137958525#1 1137958526#0 387848379#1 1137958527 7726327 627773366 4319471 43410332#0 1008751312 542325013#0 542325013#1 4334160#0 4334160#1 4487131#1 4487131#2 4487131#3 363605884#1 363605884#2 363605884#3 4487154#0 4487154#1 82280716#0 82280716#1 45757393 4487153 31053391 269291945#0 269291945#1 269291945#2" >
        <stop busStop="5970484986" duration="20" until="35.0"/> <!-- Gran Vía San Francisco - Águila -->
    </route>
    <route id="pt_subway_L10:1" color="1,83,150" edges="1054025303" >
        <stop busStop="5310093882" duration="20" until="46.0"/> <!-- Lago -->
        <stop busStop="5310093880" duration="20" until="143.0"/> <!-- Príncipe Pío -->
        <stop busStop="5310093878" duration="20" until="224.0"/> <!-- Plaza de España -->
        <stop busStop="5310093877" duration="20" until="302.0"/> <!-- Tribunal -->
        <stop busStop="7559826150" duration="20" until="364.0"/> <!-- Alonso Martínez -->
    </route>
    <route id="pt_bus_19:0" color="0,114,206" edges="685989648#0 685989648#2 685989648#3 685989647 685989645 29974650#0 29974650#1 29974650#2 262459137#0 262459137#1 262459137#2 262459137#3 285592559#0 285592559#2 285582145#1 285582145#3 285582145#4 285582145#5 285582145#6 285582145#7 44360625 43405579#2 43405580#0 43405580#1 29419688 437147506#1 44360624#1 4526341#0 4526341#1 864841823 807334397#1 807334397#2 807334397#3 807334397#4 807334397#6 554230311#0 554230311#1" >
        <stop busStop="8441342341" duration="20" until="49.0"/> <!-- None -->
    </route>
    <route id="pt_bus_138:0" color="0,114,206" edges="-116581860#1 -116581860#0 -380275226 -380275223 -45588309#4 -45588309#2 -45588309#1 293722997 293723001 198644582 293723007 7642935 293723002#0 4308591 31000691#0 71808949#0 71808949#1 71808949#3 44535822 44535820 542325013#0 542325013#1 4334160#0 4334160#1 545103682#0 545103682#1 238829520#0 238829520#1" >
        <stop busStop="8235796756" duration="20" until="80.0"/> <!-- None -->
    </route>
    <route id="pt_bus_6:1" color="0,114,206" edges="43797348#0 659404748 48345815#0 48345815#3 -1126367770 -82567669 -82567676 -82567680#2 -82567675 -320668245#0 48345473#0 48345473#2 686213116 423231391#0 423231391#4 423231391#5 423231391#6 685983423 30650268#0 7732078" >
        <stop busStop="1416248982" duration="20" until="53.0"/> <!-- None -->
    </route>
    <route id="pt_bus_15:0" color="0,114,206" edges="807334396#0 1104089484 43407376 29975003 809156092#0 809156092#1 321307754#0 461144181 554357601 910599751 43405576#0 43405576#1 37352456#0 37352456#2 37352456#3 321307744#0 321307744#1 112538808 762216477 131443347#0 4346298#0 112538828#0 112538828#1 112538828#2 112538828#3 112538828#4 243990688#0 168404659 663316135 46098088#0 46098088#1 431767099#2 261728552#0 417019353#0 417019353#1 43410310 7971500#2 813598084" >
        <stop busStop="8423256637" duration="20" until="112.0"/> <!-- None -->
    </route>
    <route id="pt_bus_33:0" color="0,114,206" edges="-116581860#1 -116581860#0 -380275226 -380275223 -45588309#4 -45588309#2 -45588309#1 293722997 293723001 198644582 293723007 7642935 293723002#0 587589743 44535825#0 44535826 45084908#0 119181069 941581922" >
        <stop busStop="8235796756" duration="20" until="61.0"/> <!-- None -->
    </route>
    <route id="pt_bus_148:0" color="0,114,206" edges="269291945#2 -335713716#0 -269291945#1 -269291945#0 335717550 4487153 335717551#0 7971933 17760817 7971930 31021778#0 31021778#1 31021779#5 31021779#6 17760812#0 17760812#1 17760812#2 7971935 7971921#0 7971922 31053363#0 31053363#1 686215410 7988350 49016413 41600137#0 41600137#1 49016408#0 49016408#1 49016408#2 -928730847 4519457#0 4519457#1 4519457#2 4519457#3 4519457#4 -5927085#0 -896274305 -7732894#3 -7732894#1 -7732894#0 387437564 970861564 43410305 43410306 1137958511 1137958513 1137958515 1137958516#1" >
        <stop busStop="8440634409" duration="20" until="76.0"/> <!-- None -->
    </route>
    <route id="pt_bus_138:1" color="0,114,206" edges="238829521#0 238829521#2 548526337#0 548526337#1 548888142 4334161 43410327#0 71808951 4308590#0 4308590#3 4308590#4 71808941 31000689#0 31000689#2 31000689#3 44535826 4086811#0 511981739 511895834#0 511895834#1 587589755#0 7642952#2 -293723007 -198644582 -293723001 -293722997 45588309#0 45588309#2 45588309#3 380275223 380275226 116581860#0 116581860#1" >
    </route>
    <route id="pt_bus_31:0" color="0,114,206" edges="-116581860#1 -116581860#0 -380275226 -380275223 -45588309#4 -45588309#2 -45588309#1 1054368317#1 40933501#0 40933501#1 45316487#0 45316487#1 44885764#1 44885764#2 44885764#3 44885764#4 44885764#5 44885764#6 689780380 31309326#0 31309326#2 31309326#3 31309326#4 7972312#0 7972312#1 7972312#2 7972312#3 7972312#4 -49016411#1 -928730847 -168406442 7732076 928730848#0 41699477#1 554505594 7732075 553501872" >
        <stop busStop="8423406967" duration="20" until="64.0"/> <!-- None -->
    </route>
    <route id="pt_bus_15:1" color="0,114,206" edges="7971499 30676408 31261348#0 31261348#1 43759728#0 43759728#2 1057894241#0 511895814#1 626418867#0 626418867#1 43759793#0 43759793#1 43759793#3 431767100#0 431767100#1 431767100#2 4346299#0 4346299#1 4346299#2 4346299#3 321307747 242547871 131431688#0 37352455 43759849 420753262 421575788#0 421575788#1 626418868 131443349 43405579#0 43405579#2 43405580#0 43405580#1 29419688 437147506#1 44360624#1 43405581#0 43405581#1 43407377 1117997094#0" >
        <stop busStop="21968139" duration="20" until="34.0"/> <!-- None -->
    </route>
    <route id="pt_bus_25:0" color="0,114,206" edges="-23594877#4 4487127#2" >
    </route>
    <route id="pt_bus_N6:0" color="black" edges="910599752 4348612#1 437147506#1 44360624#1 43405581#0 43405581#1 437147507" >
        <stop busStop="3964131000" duration="20" until="38.0"/> <!-- None -->
    </route>
    <route id="pt_bus_34:0" color="0,114,206" edges="44288719#1 1260545323#0 1260545323#1 1260545324 44288721#1 44288721#2 262951802#0 30674611 686214706#0 686214706#1 686214706#2 686214706#3 262951801#0 262951801#1 262951801#2 262951801#3 262951801#5 659404749#0 43797349" >
        <stop busStop="5342725021" duration="20" until="37.0"/> <!-- None -->
    </route>
    <route id="pt_bus_150:0" color="0,114,206" edges="1057894241#0 511895814#1 626418867#0 626418867#1 43759793#0 43759793#1 43759793#3 431767100#0 431767100#1 431767100#2 4346299#0 4346299#1 4346299#2 4346299#3 321307747 242547871 131431688#0 37352455 27396510#0 554230296 43759853#0 43759853#1 252387586#1 252387586#2 252387586#3 252387586#4 252387586#5 252387586#6 44737268#0 44737268#1" >
        <stop busStop="5006352930" duration="20" until="42.0"/> <!-- None -->
    </route>
    <route id="pt_bus_N6:1" color="black" edges="807334395 1104089484 43407376 29975003 809156092#0 809156092#1 321307754#0 461144181 554357601 910599751" >
        <stop busStop="8423256637" duration="20" until="100.0"/> <!-- None -->
    </route>
    <route id="pt_bus_6:0" color="0,114,206" edges="7732078 70955486#0 70955486#1 31262334#0 31262334#1 31262334#2 31262349#1 554357604#0 70955584#0 70955584#1 70955584#2 4328769 423638485 686213118 423232043 48345480#0 48345480#1 320668245#0 82567675 82567680#0 82567676 82567669 1126367770 48345824 1225399704#0 1225399704#2" >
        <stop busStop="1493715148" duration="20" until="36.0"/> <!-- None -->
    </route>
    <route id="pt_bus_3:1" color="0,114,206" edges="422999624#0 422999624#1 506195848#0 506195848#1 293712003#0 293712003#1 293712003#3 293712003#4 293712003#5 30993228#1 30993228#2 554359457 239499978#1 45757393 4487153 335717551#0 7971933 17760817 7971930 31021778#0 31021778#1 31021779#5 31021779#6 17760812#0 17760812#1 17760812#2 7971935 7971921#0 7971922 31053363#0 31053363#1 686215410 7988350 49016413 41600137#0 41600137#1 49016408#0 49016408#1 49016408#2 -928730847 4519457#0 4519457#1 4519457#2 4519457#3 4519457#4 -5927085#0 -896274305 -7732894#3 -7732894#1 -7732894#0 387437564 970861564 43410305 43410306 1137958511 1137958513 1137958515 1137958516#1" >
    </route>
    <route id="pt_bus_51:0" color="0,114,206" edges="112538800#0 807334403#0 807334403#1 807334403#3 807334403#4 807334403#5 807334403#7 910599751 43405576#0 43405576#1 37352456#0 37352456#2 37352456#3 321307744#0 321307744#1 112538808 762216477 131443347#0 4346298#0 112538828#0 112538828#1 112538828#2 112538828#3 112538828#4 243990688#0 168404659 663316135 46098088#0 46098088#1 431767099#2 261728552#0 417019353#0 417019353#1 984759713#1" >
        <stop busStop="5385241329" duration="20" until="67.0"/> <!-- None -->
    </route>
    <route id="pt_bus_52:0" color="0,114,206" edges="807334396#0 1104089484 43407376 29975003 809156092#0 809156092#1 321307754#0 461144181 554357601 910599751 43405576#0 43405576#1 37352456#0 37352456#2 37352456#3 321307744#0 321307744#1 112538808 762216477 131443347#0 4346298#0 112538828#0 112538828#1 112538828#2 112538828#3 112538828#4 243990688#0 168404659 663316135 46098088#0 46098088#1 431767099#2 261728552#0 417019353#0 417019353#1 43410310 7971500#2 813598084 7971499" >
        <stop busStop="2383701841" duration="20" until="93.0"/> <!-- None -->
    </route>
    <route id="pt_bus_65:0" color="0,114,206" edges="7732078 429530691#0 4519453 406007906#0 406007906#1 34095411#0 34095411#1 34095411#2 49016415 66833793#0 66833793#1 66833793#2 66833793#3 32044942#0 32044942#1 4519456#1 44614882#1 928730847 49016411#0 -7972312#4 -7972312#3 -7972312#2 -7972312#1 -7972312#0 -31309326#4 -31309326#3 -31309326#2 -31309326#1 -689780380 -44885764#6 -44885764#5 -44885764#4 -44885764#3 -44885764#2 -44885764#1 -45316487#2 -45316487#0 -40933501#1 -40933501#0 -1054368317#1 45588309#0 45588309#2 45588309#3 380275223 380275226 116581860#0 116581860#1" >
        <stop busStop="1493715148" duration="20" until="35.0"/> <!-- None -->
    </route>
    <route id="pt_bus_50:1" color="0,114,206" edges="406007906#1 34095411#0 34095411#1 34095411#2 49016415 66833793#0 66833793#1 66833793#2 66833793#3 32044942#0 32044942#1 4519456#1 44614882#1 928730847 49016411#0 -7972312#4 -7972312#3 -7972312#2 -7972312#1 -7972312#0 -31309326#4 -31309326#3 -31309326#2 -31309326#1 -689780380 -44885764#6 -44885764#5 -44885764#4 -44885764#3 -44885764#2 -44885764#1 -45316487#2 -45316487#0 32480293#1 32480293#2 32480293#3 32480293#4 32480293#5 32480293#6 32480293#7" >
        <stop busStop="8423406988" duration="20" until="31.0"/> <!-- None -->
    </route>
    <route id="pt_bus_62:1" color="0,114,206" edges="44704759#0 44704759#1 44704759#2 44704759#3 44704760#0 44704760#1 44704760#2 44704760#3 44704760#4 293722997 293723001 198644582 293723007 7642935 293723002#0 4308591 31000691#0 71808949#0 71808949#1 71808949#3 44535822 673102680 26631682 762649989#0 762649989#1 854461432" >
        <stop busStop="332054667" duration="20" until="40.0"/> <!-- None -->
    </route>
    <route id="pt_bus_52:1" color="0,114,206" edges="7971499 30676408 31261348#0 31261348#1 43759728#0 43759728#2 1057894241#0 511895814#1 626418867#0 626418867#1 43759793#0 43759793#1 43759793#3 431767100#0 431767100#1 431767100#2 4346299#0 4346299#1 4346299#2 4346299#3 321307747 242547871 131431688#0 37352455 43759849 420753262 421575788#0 421575788#1 626418868 131443349 43405579#0 43405579#2 43405580#0 43405580#1 29419688 437147506#1 44360624#1 43405581#0 43405581#1 43407377 1117997094#0" >
        <stop busStop="5960796496" duration="20" until="40.0"/> <!-- Sevilla - Pza. Canalejas -->
    </route>
    <route id="pt_bus_N13:1" color="black" edges="43797350 302580498#0 302580498#1 302580498#2 302580498#3 302580498#5 302580498#6 562027284#1 302580240#0 302580240#1 243991597" >
        <stop busStop="8433060767" duration="20" until="46.0"/> <!-- None -->
    </route>
    <route id="pt_bus_N14:1" color="black" edges="43797350 302580498#0 302580498#1 302580498#2 302580498#3 302580498#5 302580498#6 562027284#1 302580240#0 302580240#1 243991597" >
        <stop busStop="8433060767" duration="20" until="78.0"/> <!-- None -->
    </route>
    <route id="pt_bus_511:0" color="74,183,71" edges="28682154 28682317 45085114 941560395 941560393" >
        <stop busStop="8719417517" duration="20" until="126.0"/> <!-- Intercambiador Príncipe Pío - Dársena 1 -->
    </route>
    <route id="pt_bus_M1:1" color="0,114,206" edges="7971499 30676408 30676403#0 30676403#1 30676403#2 29485945#0 29485945#1 29487193#1 29486859#1 423231391#4 7642974 4328769 4328770#0 4328770#1 4328770#2 4328770#3" >
        <stop busStop="21968139" duration="20" until="59.0"/> <!-- None -->
    </route>
    <route id="pt_bus_65:1" color="0,114,206" edges="-116581860#1 -116581860#0 -380275226 -380275223 -45588309#4 -45588309#2 -45588309#1 1054368317#1 40933501#0 40933501#1 45316487#0 45316487#1 44885764#1 44885764#2 44885764#3 44885764#4 44885764#5 44885764#6 689780380 31309326#0 31309326#2 31309326#3 31309326#4 7972312#0 7972312#1 7972312#2 7972312#3 7972312#4 -49016411#1 -928730847 -168406442 7732076 928730848#0 41699477#1 554505594 41699518#0 31262349#1 554357604#0 7642979#0 7642979#2 556954611#0 7732078" >
        <stop busStop="8423406967" duration="20" until="99.0"/> <!-- None -->
    </route>
    <route id="pt_bus_33:1" color="0,114,206" edges="941581922 45316761 941560395 941560393 -70691852 552359198 511981739 511895834#0 511895834#1 587589755#0 7642952#2 -293723007 -198644582 -293723001 -293722997 45588309#0 45588309#2 45588309#3 380275223 380275226 116581860#0 116581860#1" >
        <stop busStop="8719540970" duration="20" until="34.0"/> <!-- Intercambiador Príncipe Pío - Dársena 8 -->
    </route>