<?xml version="1.0" encoding="UTF-8"?>

<!-- generated on 2024-06-25 11:33:39.252400 by $Id: ptlines2flows.py v1_3_1+0313-ccb31df3eb jakob.erdmann@dlr.de 2019-09-02 13:26:32 +0200 $ v1_19_0+0000-baa66a0f364
<configuration>
    <net-file value="C:\Users\Jaime\Sumo\2024-06-25-11-33-30\osm.net.xml.gz"/>
    <ptlines-file value="C:\Users\Jaime\Sumo\2024-06-25-11-33-30\osm_ptlines.xml"/>
    <ptstops-file value="C:\Users\Jaime\Sumo\2024-06-25-11-33-30\osm_stops.add.xml"/>
    <output-file value="C:\Users\Jaime\Sumo\2024-06-25-11-33-30\osm_pt.rou.xml"/>
    <stopinfos-file value="C:\Users\Jaime\Sumo\2024-06-25-11-33-30\stopinfos.xml"/>
    <routes-file value="C:\Users\Jaime\Sumo\2024-06-25-11-33-30\vehroutes.xml"/>
    <trips-file value="C:\Users\Jaime\Sumo\2024-06-25-11-33-30\trips.trips.xml"/>
    <end value="4000.0"/>
    <min-stops value="0"/>
    <extend-to-fringe value="True"/>
    <random-begin value="True"/>
    <seed value="42"/>
    <ignore-errors value="True"/>
    <vtype-prefix value="pt_"/>
    <verbose value="True"/>
</configuration>
-->

<routes xmlns:xsi="http://www.w3.org/2001/XMLSchema-instance" xsi:noNamespaceSchemaLocation="http://sumo.dlr.de/xsd/routes_file.xsd">
    <vType id="pt_bus" vClass="bus" speedFactor="0.95"/>
    <vType id="pt_tram" vClass="tram" speedFactor="1.0"/>
    <vType id="pt_train" vClass="rail"/>
    <vType id="pt_subway" vClass="rail_urban"/>
    <vType id="pt_light_rail" vClass="rail_urban"/>
    <vType id="pt_monorail" vClass="rail_urban"/>
    <vType id="pt_trolleybus" vClass="bus" speedFactor="0.95"/>
    <vType id="pt_minibus" vClass="bus" speedFactor="0.95"/>
    <vType id="pt_share_taxi" vClass="taxi" speedFactor="0.95"/>
    <vType id="pt_aerialway" vClass="rail_urban" length="2.5" width="2" personCapacity="4"/>
    <vType id="pt_ferry" vClass="ship"/>
    <trip id="0_train_MD_18061:0" type="pt_train" depart="0.0" departLane="best" from="119181079#0" to="119181079#1">
        <stop busStop="1493565877" duration="30"/>
    </trip>
    <trip id="1_train_C-4:0" type="pt_train" depart="3.0" departLane="best" from="695991680" to="695991678">
        <stop busStop="3660257614" duration="30"/>
    </trip>
    <trip id="2_train_RE_18009:0" type="pt_train" depart="6.0" departLane="best" from="119181079#0" to="119181079#1">
        <stop busStop="1493565877" duration="30"/>
    </trip>
    <trip id="3_train_MD_18063:0" type="pt_train" depart="11.0" departLane="best" from="119181079#0" to="119181079#1">
        <stop busStop="1493565877" duration="30"/>
    </trip>
    <trip id="4_subway_L10:0" type="pt_subway" depart="15.0" departLane="best" from="1054025299" to="1054025299">
        <stop busStop="25906012" duration="30"/>
        <stop busStop="21990715" duration="30"/>
        <stop busStop="25906011" duration="30"/>
        <stop busStop="25906010" duration="30"/>
        <stop busStop="21722690" duration="30"/>
    </trip>
    <trip id="5_subway_L10:1" type="pt_subway" depart="15.0" departLane="best" from="1054025304" to="1054025304">
        <stop busStop="5310093880" duration="30"/>
        <stop busStop="5310093878" duration="30"/>
        <stop busStop="5310093877" duration="30"/>
        <stop busStop="7559826150" duration="30"/>
    </trip>
    <trip id="6_bus_133:0" type="pt_bus" depart="17.0" departLane="best" from="554359457" to="-651525544#0">
        <stop busStop="2472773304" duration="30"/>
    </trip>
    <trip id="7_bus_133:1" type="pt_bus" depart="19.0" departLane="best" from="651525544#0" to="30993228#2">
    </trip>
    <trip id="8_bus_138:0" type="pt_bus" depart="27.0" departLane="best" from="293722999" to="542325013#1">
        <stop busStop="8272206383" duration="30"/>
    </trip>
    <trip id="9_bus_138:1" type="pt_bus" depart="28.0" departLane="best" from="4334161" to="31000689#3">
    </trip>
    <trip id="10_bus_146:0" type="pt_bus" depart="34.0" departLane="best" from="269291945#2" to="269291945#2">
        <stop busStop="3428239936" duration="30"/>
    </trip>
    <trip id="11_bus_146:1" type="pt_bus" depart="38.0" departLane="best" from="302579020#0" to="-335713716#0">
        <stop busStop="3068279551" duration="30"/>
    </trip>
    <trip id="12_bus_147:0" type="pt_bus" depart="41.0" departLane="best" from="293712003#0" to="269291945#2">
    </trip>
    <trip id="13_bus_147:1" type="pt_bus" depart="47.0" departLane="best" from="269291945#2" to="-293712003#0">
        <stop busStop="5321927322" duration="30"/>
    </trip>
    <trip id="14_bus_148:0" type="pt_bus" depart="51.0" departLane="best" from="269291945#2" to="7732898">
        <stop busStop="8440634409" duration="30"/>
    </trip>
    <trip id="15_bus_148:1" type="pt_bus" depart="52.0" departLane="best" from="7732896" to="269291945#2">
        <stop busStop="5970506960" duration="30"/>
    </trip>
    <trip id="16_bus_14:0" type="pt_bus" depart="54.0" departLane="best" from="562027283" to="911013768">
        <stop busStop="8433060766" duration="30"/>
    </trip>
    <trip id="17_bus_14:1" type="pt_bus" depart="55.0" departLane="best" from="907102748#0" to="262951801#5">
        <stop busStop="8440634349" duration="30"/>
    </trip>
    <trip id="18_bus_150:0" type="pt_bus" depart="58.0" departLane="best" from="1057894241#0" to="131431688#0">
        <stop busStop="5006352930" duration="30"/>
    </trip>
    <trip id="19_bus_150:1" type="pt_bus" depart="60.0" departLane="best" from="907102748#0" to="1057894241#0">
        <stop busStop="5006352930" duration="30"/>
    </trip>
    <trip id="20_bus_15:0" type="pt_bus" depart="65.0" departLane="best" from="302579019#0" to="813598084">
        <stop busStop="8423213265" duration="30"/>
    </trip>
    <trip id="21_bus_15:1" type="pt_bus" depart="66.0" departLane="best" from="813598084" to="813598084">
        <stop busStop="21968139" duration="30"/>
    </trip>
    <trip id="22_bus_17:0" type="pt_bus" depart="77.0" departLane="best" from="4346292#0" to="1275422412">
        <stop busStop="8422641941" duration="30"/>
    </trip>
    <trip id="23_bus_17:1" type="pt_bus" depart="91.0" departLane="best" from="907553665" to="-4346292#4">
        <stop busStop="5342725022" duration="30"/>
    </trip>
    <trip id="24_bus_18:0" type="pt_bus" depart="93.0" departLane="best" from="7732075" to="-4346292#4">
        <stop busStop="1437056478" duration="30"/>
    </trip>
    <trip id="25_bus_18:1" type="pt_bus" depart="98.0" departLane="best" from="4346292#0" to="7732075">
        <stop busStop="8422641941" duration="30"/>
    </trip>
    <trip id="26_bus_1:0" type="pt_bus" depart="102.0" departLane="best" from="651525544#0" to="131431688#0">
    </trip>
    <trip id="27_bus_1:1" type="pt_bus" depart="107.0" departLane="best" from="302579020#0" to="-651525544#0">
        <stop busStop="3068279551" duration="30"/>
    </trip>
    <trip id="29_bus_23:0" type="pt_bus" depart="120.0" departLane="best" from="4346292#0" to="7732075">
        <stop busStop="8422641941" duration="30"/>
    </trip>
    <trip id="30_bus_23:1" type="pt_bus" depart="125.0" departLane="best" from="7732075" to="-4346292#4">
        <stop busStop="1437056478" duration="30"/>
    </trip>
    <trip id="31_bus_25:0" type="pt_bus" depart="126.0" departLane="best" from="293722999" to="542325013#1">
        <stop busStop="8272206383" duration="30"/>
    </trip>
    <trip id="32_bus_25:1" type="pt_bus" depart="127.0" departLane="best" from="4334161" to="31000689#3">
        <stop busStop="8235796741" duration="30"/>
        <stop busStop="1439703616" duration="30"/>
        <stop busStop="8272206405" duration="30"/>
    </trip>
    <trip id="33_bus_26:0" type="pt_bus" depart="131.0" departLane="best" from="-1275083956#1" to="31262349#1">
        <stop busStop="-8423356513" duration="30"/>
    </trip>
    <trip id="34_bus_26:1" type="pt_bus" depart="131.0" departLane="best" from="554357604#0" to="82567675#3">
        <stop busStop="5350038443" duration="30"/>
    </trip>
    <trip id="35_bus_27:0" type="pt_bus" depart="132.0" departLane="best" from="562027283" to="911013768">
        <stop busStop="8433060766" duration="30"/>
    </trip>
    <trip id="36_bus_27:1" type="pt_bus" depart="133.0" departLane="best" from="907102748#0" to="262951801#5">
        <stop busStop="8440634349" duration="30"/>
    </trip>
    <trip id="37_bus_2:0" type="pt_bus" depart="136.0" departLane="best" from="302579020#0" to="-651525544#0">
        <stop busStop="3068279551" duration="30"/>
    </trip>
    <trip id="38_bus_2:1" type="pt_bus" depart="137.0" departLane="best" from="651525544#0" to="131431688#0">
    </trip>
    <trip id="39_bus_31:0" type="pt_bus" depart="139.0" departLane="best" from="40933501#0" to="907553665">
        <stop busStop="8423406967" duration="30"/>
    </trip>
    <trip id="40_bus_31:1" type="pt_bus" depart="147.0" departLane="best" from="907553665" to="-40933501#0">
        <stop busStop="8427149777" duration="30"/>
    </trip>
    <trip id="41_bus_32:0" type="pt_bus" depart="157.0" departLane="best" from="7732078" to="82567675#3">
        <stop busStop="1493715148" duration="30"/>
    </trip>
    <trip id="42_bus_32:1" type="pt_bus" depart="158.0" departLane="best" from="-1275083956#1" to="7732078">
        <stop busStop="-8423356513" duration="30"/>
    </trip>
    <trip id="43_bus_33:0" type="pt_bus" depart="158.0" departLane="best" from="293722999" to="44535825#0">
        <stop busStop="8272206383" duration="30"/>
    </trip>
    <trip id="44_bus_34:0" type="pt_bus" depart="159.0" departLane="best" from="44288719#1" to="262951801#5">
        <stop busStop="5342725021" duration="30"/>
    </trip>
    <trip id="45_bus_34:1" type="pt_bus" depart="160.0" departLane="best" from="562027283" to="911013768">
        <stop busStop="8433060766" duration="30"/>
    </trip>
    <trip id="46_bus_35:0" type="pt_bus" depart="160.0" departLane="best" from="4346292#0" to="41699477#1">
        <stop busStop="8422641941" duration="30"/>
    </trip>
    <trip id="47_bus_35:1" type="pt_bus" depart="160.0" departLane="best" from="41699477#1" to="-4346292#4">
        <stop busStop="5351138581" duration="30"/>
    </trip>
    <trip id="48_bus_36:0" type="pt_bus" depart="165.0" departLane="best" from="40933501#0" to="32480293#6">
        <stop busStop="8423406977" duration="30"/>
    </trip>
    <trip id="49_bus_37:0" type="pt_bus" depart="166.0" departLane="best" from="907102748#0" to="262951801#5">
        <stop busStop="8440634349" duration="30"/>
    </trip>
    <trip id="50_bus_37:1" type="pt_bus" depart="173.0" departLane="best" from="562027283" to="911013768">
        <stop busStop="8433060766" duration="30"/>
    </trip>
    <trip id="51_bus_39:0" type="pt_bus" depart="179.0" departLane="best" from="4334161" to="31000689#3">
        <stop busStop="8235796741" duration="30"/>
        <stop busStop="1439703616" duration="30"/>
        <stop busStop="8272206405" duration="30"/>
    </trip>
    <trip id="52_bus_39:1" type="pt_bus" depart="184.0" departLane="best" from="293722999" to="542325013#1">
        <stop busStop="8272206383" duration="30"/>
    </trip>
    <trip id="53_bus_3:0" type="pt_bus" depart="187.0" departLane="best" from="7732896" to="4487679#7">
        <stop busStop="5970484990" duration="30"/>
    </trip>
    <trip id="54_bus_3:1" type="pt_bus" depart="188.0" departLane="best" from="293712003#0" to="7732898">
    </trip>
    <trip id="55_bus_44:0" type="pt_bus" depart="189.0" departLane="best" from="554359457" to="-651525544#0">
        <stop busStop="5350055328" duration="30"/>
    </trip>
    <trip id="56_bus_44:1" type="pt_bus" depart="194.0" departLane="best" from="651525544#0" to="554359457">
    </trip>
    <trip id="57_bus_45:0" type="pt_bus" depart="201.0" departLane="best" from="562027283" to="911013768">
        <stop busStop="8433060766" duration="30"/>
    </trip>
    <trip id="58_bus_45:1" type="pt_bus" depart="204.0" departLane="best" from="907102748#0" to="262951801#5">
        <stop busStop="8440634349" duration="30"/>
    </trip>
    <trip id="59_bus_46:0" type="pt_bus" depart="218.0" departLane="best" from="4308591" to="46098088#1">
        <stop busStop="8235796763" duration="30"/>
    </trip>
    <trip id="60_bus_46:1" type="pt_bus" depart="222.0" departLane="best" from="46098088#1" to="31000689#3">
        <stop busStop="8436098481" duration="30"/>
    </trip>
    <trip id="61_bus_50:0" type="pt_bus" depart="227.0" departLane="best" from="40933501#0" to="1275419913#1">
        <stop busStop="8423406967" duration="30"/>
    </trip>
    <trip id="62_bus_50:1" type="pt_bus" depart="227.0" departLane="best" from="1275419913#1" to="32480293#6">
        <stop busStop="8423406988" duration="30"/>
    </trip>
    <trip id="63_bus_51:0" type="pt_bus" depart="228.0" departLane="best" from="302579018#0" to="984759713#1">
        <stop busStop="2506473215" duration="30"/>
    </trip>
    <trip id="64_bus_51:1" type="pt_bus" depart="237.0" departLane="best" from="984759713#1" to="131431688#0">
        <stop busStop="9104252079" duration="30"/>
    </trip>
    <trip id="65_bus_52:0" type="pt_bus" depart="239.0" departLane="best" from="302579018#0" to="7971499">
        <stop busStop="2506473215" duration="30"/>
    </trip>
    <trip id="66_bus_52:1" type="pt_bus" depart="253.0" departLane="best" from="30676408" to="131431688#0">
        <stop busStop="339242703" duration="30"/>
    </trip>
    <trip id="67_bus_53:0" type="pt_bus" depart="253.0" departLane="best" from="302579018#0" to="7971499">
        <stop busStop="2506473215" duration="30"/>
    </trip>
    <trip id="68_bus_53:1" type="pt_bus" depart="253.0" departLane="best" from="30676408" to="131431688#0">
        <stop busStop="339242703" duration="30"/>
    </trip>
    <trip id="69_bus_5:0" type="pt_bus" depart="260.0" departLane="best" from="907102748#0" to="813598084">
        <stop busStop="21968139" duration="30"/>
    </trip>
    <trip id="70_bus_5:1" type="pt_bus" depart="262.0" departLane="best" from="813598084" to="813598084">
        <stop busStop="21968139" duration="30"/>
    </trip>
    <trip id="71_bus_60:0" type="pt_bus" depart="272.0" departLane="best" from="7732894#0" to="-909029029#0">
        <stop busStop="8440470083" duration="30"/>
    </trip>
    <trip id="72_bus_60:1" type="pt_bus" depart="275.0" departLane="best" from="4346292#0" to="4346292#6">
        <stop busStop="8440470099" duration="30"/>
    </trip>
    <trip id="73_bus_62:0" type="pt_bus" depart="285.0" departLane="best" from="43410331" to="7648767#2">
    </trip>
    <trip id="74_bus_62:1" type="pt_bus" depart="291.0" departLane="best" from="293722999" to="26631682">
        <stop busStop="8272206383" duration="30"/>
    </trip>
    <trip id="75_bus_65:0" type="pt_bus" depart="300.0" departLane="best" from="7732078" to="-40933501#0">
        <stop busStop="1493715148" duration="30"/>
    </trip>
    <trip id="76_bus_65:1" type="pt_bus" depart="303.0" departLane="best" from="40933501#0" to="7732078">
        <stop busStop="8423406967" duration="30"/>
    </trip>
    <trip id="77_bus_6:0" type="pt_bus" depart="305.0" departLane="best" from="7732078" to="82567675#3">
        <stop busStop="1493715148" duration="30"/>
    </trip>
    <trip id="78_bus_6:1" type="pt_bus" depart="310.0" departLane="best" from="-1275083956#1" to="7732078">
        <stop busStop="-8423356513" duration="30"/>
    </trip>
    <trip id="79_bus_74:0" type="pt_bus" depart="317.0" departLane="best" from="302579020#0" to="-651525544#0">
        <stop busStop="3068279551" duration="30"/>
    </trip>
    <trip id="80_bus_74:1" type="pt_bus" depart="318.0" departLane="best" from="651525544#0" to="131431688#0">
    </trip>
    <trip id="81_bus_75:0" type="pt_bus" depart="321.0" departLane="best" from="269291945#2" to="31000689#3">
        <stop busStop="3428239936" duration="30"/>
    </trip>
    <trip id="82_bus_75:1" type="pt_bus" depart="322.0" departLane="best" from="4308591" to="269291945#2">
        <stop busStop="8235796763" duration="30"/>
    </trip>
    <trip id="83_bus_9:0" type="pt_bus" depart="323.0" departLane="best" from="302579020#0" to="46098088#1">
        <stop busStop="8235796758" duration="30"/>
    </trip>
    <trip id="84_bus_9:1" type="pt_bus" depart="323.0" departLane="best" from="46098088#1" to="131431688#0">
        <stop busStop="2673249151" duration="30"/>
    </trip>
    <trip id="85_bus_C1:0" type="pt_bus" depart="326.0" departLane="best" from="7648748" to="542325013#1">
        <stop busStop="-8473691223" duration="30"/>
    </trip>
    <trip id="86_bus_C2:0" type="pt_bus" depart="329.0" departLane="best" from="4334161" to="1010800836">
    </trip>
    <trip id="87_bus_M1:0" type="pt_bus" depart="331.0" departLane="best" from="686216023" to="813598084">
        <stop busStop="8423406949" duration="30"/>
    </trip>
    <trip id="88_bus_M1:1" type="pt_bus" depart="334.0" departLane="best" from="813598084" to="813598084">
        <stop busStop="21968139" duration="30"/>
    </trip>
    <trip id="89_bus_002:0" type="pt_bus" depart="336.0" departLane="best" from="4328803#0" to="-4346292#4">
    </trip>
    <trip id="90_bus_002:1" type="pt_bus" depart="346.0" departLane="best" from="4346292#0" to="4308074#3">
        <stop busStop="-5970506955" duration="30"/>
    </trip>
    <trip id="97_bus_N13:0" type="pt_bus" depart="376.0" departLane="best" from="128089326" to="262951801#5">
        <stop busStop="8423356496" duration="30"/>
    </trip>
    <trip id="98_bus_N13:1" type="pt_bus" depart="381.0" departLane="best" from="562027283" to="243991597">
        <stop busStop="8433060766" duration="30"/>
    </trip>
    <trip id="99_bus_N14:0" type="pt_bus" depart="383.0" departLane="best" from="128089326" to="262951801#5">
        <stop busStop="8423356496" duration="30"/>
    </trip>
    <trip id="100_bus_N14:1" type="pt_bus" depart="383.0" departLane="best" from="562027283" to="243991597">
        <stop busStop="8433060766" duration="30"/>
    </trip>
    <trip id="117_bus_203:0" type="pt_bus" depart="456.0" departLane="best" from="302579020#0" to="262951801#5">
        <stop busStop="8235796758" duration="30"/>
    </trip>
    <trip id="118_train_C-1:0" type="pt_train" depart="457.0" departLane="best" from="1067764157" to="571606404">
        <stop busStop="26080642" duration="30"/>
    </trip>
    <trip id="119_bus_41:0" type="pt_bus" depart="459.0" departLane="best" from="40933501#0" to="1184617809">
        <stop busStop="8473691225" duration="30"/>
    </trip>
    <trip id="120_bus_10:0" type="pt_bus" depart="465.0" departLane="best" from="44288719#1" to="262951801#5">
        <stop busStop="562734686" duration="30"/>
    </trip>
    <trip id="121_bus_10:1" type="pt_bus" depart="467.0" departLane="best" from="562027283" to="44288719#1">
        <stop busStop="8433060766" duration="30"/>
    </trip>
    <trip id="122_bus_20:0" type="pt_bus" depart="475.0" departLane="best" from="813598084" to="813598084">
        <stop busStop="21968139" duration="30"/>
    </trip>
    <trip id="125_bus_41:1" type="pt_bus" depart="485.0" departLane="best" from="-1184617809" to="44535825#0">
        <stop busStop="-8473691223" duration="30"/>
    </trip>
    <trip id="126_bus_500:0" type="pt_bus" depart="497.0" departLane="best" from="293722999" to="542325013#1">
        <stop busStop="9307495431" duration="30"/>
    </trip>
    <trip id="127_train_R-1:0" type="pt_train" depart="498.0" departLane="best" from="695991680" to="695991678">
        <stop busStop="3660257614" duration="30"/>
    </trip>
    <trip id="128_train_C-3:0" type="pt_train" depart="505.0" departLane="best" from="695991680" to="695991678">
        <stop busStop="3660257614" duration="30"/>
    </trip>
    <trip id="129_subway_L6:0" type="pt_subway" depart="508.0" departLane="best" from="1054025302" to="1054025302">
        <stop busStop="5305486978" duration="30"/>
    </trip>
    <trip id="130_subway_L3:0" type="pt_subway" depart="516.0" departLane="best" from="443618649" to="443618649">
        <stop busStop="5303173542" duration="30"/>
        <stop busStop="21964104" duration="30"/>
        <stop busStop="21759678" duration="30"/>
        <stop busStop="21956103" duration="30"/>
    </trip>
    <trip id="131_train_C-10:0" type="pt_train" depart="517.0" departLane="best" from="1073094830" to="741727698">
        <stop busStop="7954956494" duration="30"/>
        <stop busStop="1493565879" duration="30"/>
    </trip>
    <trip id="132_train_C-7:0" type="pt_train" depart="522.0" departLane="best" from="1067764157" to="1067764157">
        <stop busStop="26080642" duration="30"/>
    </trip>
    <trip id="133_train_C-10:1" type="pt_train" depart="523.0" departLane="best" from="101623396" to="571606404">
        <stop busStop="26080642" duration="30"/>
    </trip>
    <trip id="134_train_C-7:1" type="pt_train" depart="525.0" departLane="best" from="571079929" to="571079929">
        <stop busStop="1493565879" duration="30"/>
    </trip>
    <trip id="135_subway_L2:0" type="pt_subway" depart="525.0" departLane="best" from="-442950303" to="-442950301#0">
        <stop busStop="-5303271992" duration="30"/>
        <stop busStop="-5303271994" duration="30"/>
        <stop busStop="-324376827" duration="30"/>
        <stop busStop="-25935011" duration="30"/>
        <stop busStop="-26066629" duration="30"/>
        <stop busStop="-26068173" duration="30"/>
        <stop busStop="-4405991654" duration="30"/>
        <stop busStop="-4405988107" duration="30"/>
        <stop busStop="-25903354" duration="30"/>
        <stop busStop="-25903355" duration="30"/>
    </trip>
    <trip id="136_subway_L5:0" type="pt_subway" depart="526.0" departLane="best" from="695991673#2" to="695991675">
        <stop busStop="21759690" duration="30"/>
        <stop busStop="5303127349" duration="30"/>
        <stop busStop="5303127353" duration="30"/>
        <stop busStop="22032372" duration="30"/>
        <stop busStop="25906279" duration="30"/>
        <stop busStop="5303127355" duration="30"/>
        <stop busStop="255881693" duration="30"/>
    </trip>
    <trip id="137_subway_R:0" type="pt_subway" depart="527.0" departLane="best" from="549151323" to="-442950334">
        <stop busStop="-5304749213" duration="30"/>
        <stop busStop="-4405988225" duration="30"/>
    </trip>
    <trip id="138_subway_L1:0" type="pt_subway" depart="535.0" departLane="best" from="511288266#0" to="511288266#2">
        <stop busStop="299644680" duration="30"/>
        <stop busStop="299515114" duration="30"/>
        <stop busStop="5299314589" duration="30"/>
        <stop busStop="324391382" duration="30"/>
        <stop busStop="324391956" duration="30"/>
        <stop busStop="5299314586" duration="30"/>
        <stop busStop="5299314584" duration="30"/>
        <stop busStop="5299314582" duration="30"/>
        <stop busStop="5299314580" duration="30"/>
        <stop busStop="26340396" duration="30"/>
        <stop busStop="26340397" duration="30"/>
        <stop busStop="26494720" duration="30"/>
        <stop busStop="26494721" duration="30"/>
        <stop busStop="323411634" duration="30"/>
        <stop busStop="5299314574" duration="30"/>
        <stop busStop="323403727" duration="30"/>
        <stop busStop="323400134" duration="30"/>
        <stop busStop="323387579" duration="30"/>
        <stop busStop="324398584" duration="30"/>
        <stop busStop="330235720" duration="30"/>
        <stop busStop="330235642" duration="30"/>
        <stop busStop="330236023" duration="30"/>
        <stop busStop="330236831" duration="30"/>
        <stop busStop="330236828" duration="30"/>
        <stop busStop="330237676" duration="30"/>
        <stop busStop="330238287" duration="30"/>
        <stop busStop="330238286" duration="30"/>
    </trip>
    <trip id="139_train_C-3:1" type="pt_train" depart="538.0" departLane="best" from="1037434521" to="1037434519">
        <stop busStop="1152699021" duration="30"/>
    </trip>
    <trip id="140_subway_L1:1" type="pt_subway" depart="547.0" departLane="best" from="-548531500" to="-548531514#0">
        <stop busStop="-5299216970" duration="30"/>
        <stop busStop="-5299216972" duration="30"/>
        <stop busStop="-5299216977" duration="30"/>
        <stop busStop="-5299216982" duration="30"/>
        <stop busStop="-5299216985" duration="30"/>
        <stop busStop="-5299216987" duration="30"/>
        <stop busStop="-5299216997" duration="30"/>
        <stop busStop="-5299217000" duration="30"/>
        <stop busStop="-5299217006" duration="30"/>
        <stop busStop="-5299217008" duration="30"/>
        <stop busStop="-5299217010" duration="30"/>
        <stop busStop="-5299217011" duration="30"/>
        <stop busStop="-5299217013" duration="30"/>
        <stop busStop="-5299217017" duration="30"/>
        <stop busStop="-5299219122" duration="30"/>
        <stop busStop="-5299219127" duration="30"/>
        <stop busStop="-5299219130" duration="30"/>
        <stop busStop="-5299219185" duration="30"/>
        <stop busStop="-5299219187" duration="30"/>
        <stop busStop="-5299219188" duration="30"/>
        <stop busStop="-5299219189" duration="30"/>
        <stop busStop="-5299219190" duration="30"/>
        <stop busStop="-5299219193" duration="30"/>
        <stop busStop="-5299219194" duration="30"/>
        <stop busStop="-5299219195" duration="30"/>
        <stop busStop="-5299219197" duration="30"/>
        <stop busStop="-5299219209" duration="30"/>
    </trip>
    <trip id="141_subway_L5:1" type="pt_subway" depart="548.0" departLane="best" from="695991676" to="695991674#2">
        <stop busStop="5303043473" duration="30"/>
        <stop busStop="5303043472" duration="30"/>
        <stop busStop="5303043466" duration="30"/>
        <stop busStop="5303043465" duration="30"/>
        <stop busStop="5303127350" duration="30"/>
        <stop busStop="5303043432" duration="30"/>
    </trip>
    <trip id="142_subway_L3:1" type="pt_subway" depart="557.0" departLane="best" from="548977485#2" to="548977485#0">
        <stop busStop="5303173603" duration="30"/>
        <stop busStop="5303173605" duration="30"/>
        <stop busStop="9666807257" duration="30"/>
        <stop busStop="5303173607" duration="30"/>
    </trip>
    <trip id="143_subway_L2:1" type="pt_subway" depart="561.0" departLane="best" from="548990703" to="548990710">
        <stop busStop="5303272236" duration="30"/>
        <stop busStop="5303272231" duration="30"/>
        <stop busStop="5303272075" duration="30"/>
        <stop busStop="5303272068" duration="30"/>
        <stop busStop="5303272249" duration="30"/>
        <stop busStop="5303272248" duration="30"/>
        <stop busStop="5303272246" duration="30"/>
        <stop busStop="5303272244" duration="30"/>
        <stop busStop="5303272243" duration="30"/>
        <stop busStop="5303272239" duration="30"/>
    </trip>
    <trip id="144_subway_R:1" type="pt_subway" depart="565.0" departLane="best" from="549151325" to="549151324">
        <stop busStop="5304749535" duration="30"/>
        <stop busStop="5304749213" duration="30"/>
    </trip>
    <trip id="145_subway_L6:1" type="pt_subway" depart="568.0" departLane="best" from="1054025301" to="1054025306#1">
        <stop busStop="5305487011" duration="30"/>
    </trip>
    <trip id="146_train_C-1:1" type="pt_train" depart="572.0" departLane="best" from="1073094830" to="571079929">
        <stop busStop="7954956494" duration="30"/>
        <stop busStop="1493565879" duration="30"/>
    </trip>
    <trip id="147_train_R-1:1" type="pt_train" depart="574.0" departLane="best" from="1037434521" to="1037434519">
        <stop busStop="1152699021" duration="30"/>
    </trip>
    <trip id="148_bus_20:1" type="pt_bus" depart="582.0" departLane="best" from="302579019#0" to="813598084">
        <stop busStop="8423213265" duration="30"/>
    </trip>
    <trip id="151_train_C-4:1" type="pt_train" depart="597.0" departLane="best" from="1037434521" to="1037434519">
        <stop busStop="1152699021" duration="30"/>
    </trip>
    <trip id="152_train_C-4:2" type="pt_train" depart="597.0" departLane="best" from="1037434521" to="1037434519">
        <stop busStop="1152699021" duration="30"/>
    </trip>
    <trip id="153_train_C-4:3" type="pt_train" depart="598.0" departLane="best" from="695991680" to="695991678">
        <stop busStop="3660257614" duration="30"/>
    </trip>
</routes>
