<?xml version="1.0" encoding="UTF-8"?>

<!-- generated on 2024-04-11 19:46:19.118546 by $Id: ptlines2flows.py v1_3_1+0313-ccb31df3eb jakob.erdmann@dlr.de 2019-09-02 13:26:32 +0200 $ v1_19_0+0000-baa66a0f364
<configuration>
    <net-file value="C:\Users\Jaime\Sumo\2024-04-11-19-46-06\osm.net.xml.gz"/>
    <ptlines-file value="C:\Users\Jaime\Sumo\2024-04-11-19-46-06\osm_ptlines.xml"/>
    <ptstops-file value="C:\Users\Jaime\Sumo\2024-04-11-19-46-06\osm_stops.add.xml"/>
    <output-file value="C:\Users\Jaime\Sumo\2024-04-11-19-46-06\osm_pt.rou.xml"/>
    <stopinfos-file value="C:\Users\Jaime\Sumo\2024-04-11-19-46-06\stopinfos.xml"/>
    <routes-file value="C:\Users\Jaime\Sumo\2024-04-11-19-46-06\vehroutes.xml"/>
    <trips-file value="C:\Users\Jaime\Sumo\2024-04-11-19-46-06\trips.trips.xml"/>
    <min-stops value="0"/>
    <extend-to-fringe value="True"/>
    <random-begin value="True"/>
    <seed value="42"/>
    <ignore-errors value="True"/>
    <vtype-prefix value="pt_"/>
    <verbose value="True"/>
</configuration>
-->

<routes xmlns:xsi="http://www.w3.org/2001/XMLSchema-instance" xsi:noNamespaceSchemaLocation="http://sumo.dlr.de/xsd/routes_file.xsd">
    <vType id="pt_bus" vClass="bus" speedFactor="0.95"/>
    <vType id="pt_tram" vClass="tram" speedFactor="1.0"/>
    <vType id="pt_train" vClass="rail"/>
    <vType id="pt_subway" vClass="rail_urban"/>
    <vType id="pt_light_rail" vClass="rail_urban"/>
    <vType id="pt_monorail" vClass="rail_urban"/>
    <vType id="pt_trolleybus" vClass="bus" speedFactor="0.95"/>
    <vType id="pt_minibus" vClass="bus" speedFactor="0.95"/>
    <vType id="pt_share_taxi" vClass="taxi" speedFactor="0.95"/>
    <vType id="pt_aerialway" vClass="rail_urban" length="2.5" width="2" personCapacity="4"/>
    <vType id="pt_ferry" vClass="ship"/>
    <trip id="0_train_MD_18061:0" type="pt_train" depart="0.0" departLane="best" from="119181079#0" to="119181079#1">
        <stop busStop="1493565877" duration="30"/>
    </trip>
    <trip id="1_bus_581:0" type="pt_bus" depart="3.0" departLane="best" from="941560393" to="251971165">
        <stop busStop="8719540977" duration="30"/>
    </trip>
    <trip id="2_bus_581:1" type="pt_bus" depart="6.0" departLane="best" from="28682154" to="941560393">
        <stop busStop="8719417517" duration="30"/>
    </trip>
    <trip id="3_bus_581:2" type="pt_bus" depart="11.0" departLane="best" from="28682154" to="941560393">
        <stop busStop="8719417517" duration="30"/>
    </trip>
    <trip id="4_bus_581:3" type="pt_bus" depart="15.0" departLane="best" from="941560393" to="251971165">
        <stop busStop="8719540977" duration="30"/>
    </trip>
    <trip id="5_train_C-4:0" type="pt_train" depart="15.0" departLane="best" from="695991680" to="695991678">
        <stop busStop="3660257614" duration="30"/>
    </trip>
    <trip id="6_train_C-8a:0" type="pt_train" depart="17.0" departLane="best" from="4812007" to="1037434512">
        <stop busStop="4999319331" duration="30"/>
    </trip>
    <trip id="7_train_C-8a:1" type="pt_train" depart="19.0" departLane="best" from="1037434513" to="197483308">
        <stop busStop="4999319330" duration="30"/>
    </trip>
    <trip id="8_bus_551:0" type="pt_bus" depart="27.0" departLane="best" from="941560394#1" to="251971165">
        <stop busStop="8719540982" duration="30"/>
    </trip>
    <trip id="9_bus_551:1" type="pt_bus" depart="28.0" departLane="best" from="28682154" to="941560393">
        <stop busStop="8719417518" duration="30"/>
    </trip>
    <trip id="10_bus_551:2" type="pt_bus" depart="30.0" departLane="best" from="28682154" to="941560393">
        <stop busStop="8719417518" duration="30"/>
    </trip>
    <trip id="11_bus_551:3" type="pt_bus" depart="34.0" departLane="best" from="28682154" to="941560393">
        <stop busStop="8719417518" duration="30"/>
    </trip>
    <trip id="12_bus_551:4" type="pt_bus" depart="34.0" departLane="best" from="941560394#1" to="251971165">
        <stop busStop="8719540982" duration="30"/>
    </trip>
    <trip id="13_bus_523:0" type="pt_bus" depart="35.0" departLane="best" from="941581922" to="251971165">
        <stop busStop="8770134602" duration="30"/>
    </trip>
    <trip id="14_bus_545:0" type="pt_bus" depart="38.0" departLane="best" from="511895834#0" to="116581860#1">
        <stop busStop="5006352934" duration="30"/>
    </trip>
    <trip id="15_bus_545:1" type="pt_bus" depart="41.0" departLane="best" from="511895834#0" to="511895834#0">
        <stop busStop="5006352934" duration="30"/>
    </trip>
    <trip id="16_train_RE_18009:0" type="pt_train" depart="42.0" departLane="best" from="119181079#0" to="119181079#1">
        <stop busStop="1493565877" duration="30"/>
    </trip>
    <trip id="17_train_MD_18063:0" type="pt_train" depart="42.0" departLane="best" from="119181079#0" to="119181079#1">
        <stop busStop="1493565877" duration="30"/>
    </trip>
    <trip id="18_subway_L10:0" type="pt_subway" depart="47.0" departLane="best" from="1054025299" to="1054025299">
        <stop busStop="25906012" duration="30"/>
        <stop busStop="21990715" duration="30"/>
        <stop busStop="25906011" duration="30"/>
        <stop busStop="25906010" duration="30"/>
        <stop busStop="21722690" duration="30"/>
    </trip>
    <trip id="19_subway_L10:1" type="pt_subway" depart="51.0" departLane="best" from="1054025303" to="1054025303">
        <stop busStop="5310093882" duration="30"/>
        <stop busStop="5310093880" duration="30"/>
        <stop busStop="5310093878" duration="30"/>
        <stop busStop="5310093877" duration="30"/>
        <stop busStop="7559826150" duration="30"/>
    </trip>
    <trip id="20_bus_495:0" type="pt_bus" depart="52.0" departLane="best" from="28682154" to="941560393">
        <stop busStop="8719540975" duration="30"/>
    </trip>
    <trip id="21_bus_495:1" type="pt_bus" depart="54.0" departLane="best" from="941560393" to="251971165">
        <stop busStop="8719540975" duration="30"/>
    </trip>
    <trip id="22_bus_495(a):0" type="pt_bus" depart="55.0" departLane="best" from="941560393" to="251971165">
        <stop busStop="8719540975" duration="30"/>
    </trip>
    <trip id="23_bus_495(a):1" type="pt_bus" depart="58.0" departLane="best" from="28682154" to="941560393">
        <stop busStop="8719540975" duration="30"/>
    </trip>
    <trip id="24_bus_133:0" type="pt_bus" depart="58.0" departLane="best" from="554359457" to="238829520#1">
        <stop busStop="2472773304" duration="30"/>
    </trip>
    <trip id="25_bus_133:1" type="pt_bus" depart="59.0" departLane="best" from="238829521#0" to="30993228#2">
    </trip>
    <trip id="26_bus_138:0" type="pt_bus" depart="60.0" departLane="best" from="-116581860#1" to="238829520#1">
        <stop busStop="8235796756" duration="30"/>
    </trip>
    <trip id="27_bus_138:1" type="pt_bus" depart="65.0" departLane="best" from="238829521#0" to="116581860#1">
    </trip>
    <trip id="28_bus_146:0" type="pt_bus" depart="66.0" departLane="best" from="269291945#2" to="269291945#2">
        <stop busStop="3428239936" duration="30"/>
    </trip>
    <trip id="29_bus_146:1" type="pt_bus" depart="72.0" departLane="best" from="807334396#0" to="-335713716#0">
        <stop busStop="2383701841" duration="30"/>
    </trip>
    <trip id="30_bus_147:0" type="pt_bus" depart="77.0" departLane="best" from="422999624#0" to="269291945#2">
    </trip>
    <trip id="31_bus_147:1" type="pt_bus" depart="79.0" departLane="best" from="269291945#2" to="-422999624#0">
        <stop busStop="5321927322" duration="30"/>
    </trip>
    <trip id="32_bus_148:0" type="pt_bus" depart="91.0" departLane="best" from="269291945#2" to="1137958516#1">
        <stop busStop="8440634409" duration="30"/>
    </trip>
    <trip id="33_bus_148:1" type="pt_bus" depart="92.0" departLane="best" from="1137958523#0" to="269291945#2">
        <stop busStop="5970484986" duration="30"/>
    </trip>
    <trip id="34_bus_14:0" type="pt_bus" depart="93.0" departLane="best" from="43797350" to="44737268#1">
        <stop busStop="8433060767" duration="30"/>
    </trip>
    <trip id="35_bus_14:1" type="pt_bus" depart="98.0" departLane="best" from="112538817#0" to="43797349">
        <stop busStop="8427025374" duration="30"/>
    </trip>
    <trip id="36_bus_150:0" type="pt_bus" depart="99.0" departLane="best" from="1057894241#0" to="44737268#1">
        <stop busStop="5006352930" duration="30"/>
    </trip>
    <trip id="37_bus_150:1" type="pt_bus" depart="102.0" departLane="best" from="112538817#0" to="1057894241#0">
        <stop busStop="8427025374" duration="30"/>
    </trip>
    <trip id="38_bus_15:0" type="pt_bus" depart="107.0" departLane="best" from="807334396#0" to="813598084">
        <stop busStop="8423256637" duration="30"/>
    </trip>
    <trip id="39_bus_15:1" type="pt_bus" depart="114.0" departLane="best" from="7971499" to="1117997094#0">
        <stop busStop="21968139" duration="30"/>
    </trip>
    <trip id="40_bus_17:0" type="pt_bus" depart="114.0" departLane="best" from="4346292#0" to="553501872">
        <stop busStop="8422641941" duration="30"/>
    </trip>
    <trip id="41_bus_17:1" type="pt_bus" depart="119.0" departLane="best" from="553501872" to="-4346292#1">
        <stop busStop="5342725022" duration="30"/>
    </trip>
    <trip id="42_bus_18:0" type="pt_bus" depart="120.0" departLane="best" from="7732075" to="-4346292#1">
        <stop busStop="1437056478" duration="30"/>
    </trip>
    <trip id="43_bus_18:1" type="pt_bus" depart="125.0" departLane="best" from="4346292#0" to="7732075">
        <stop busStop="8422641941" duration="30"/>
    </trip>
    <trip id="44_bus_19:0" type="pt_bus" depart="126.0" departLane="best" from="685989648#0" to="554230311#1">
        <stop busStop="8441342341" duration="30"/>
    </trip>
    <trip id="45_bus_19:1" type="pt_bus" depart="127.0" departLane="best" from="112538800#0" to="373776805#3">
        <stop busStop="5385241329" duration="30"/>
    </trip>
    <trip id="46_bus_1:0" type="pt_bus" depart="128.0" departLane="best" from="238829521#0" to="554230311#1">
    </trip>
    <trip id="47_bus_1:1" type="pt_bus" depart="128.0" departLane="best" from="112538800#0" to="238829520#1">
        <stop busStop="5385241329" duration="30"/>
    </trip>
    <trip id="49_bus_23:0" type="pt_bus" depart="131.0" departLane="best" from="4346292#0" to="7732075">
        <stop busStop="8422641941" duration="30"/>
    </trip>
    <trip id="50_bus_23:1" type="pt_bus" depart="132.0" departLane="best" from="7732075" to="-4346292#1">
        <stop busStop="1437056478" duration="30"/>
    </trip>
    <trip id="51_bus_25:0" type="pt_bus" depart="132.0" departLane="best" from="-23594877#4" to="4487127#2">
    </trip>
    <trip id="52_bus_25:1" type="pt_bus" depart="133.0" departLane="best" from="4487127#2" to="23594877#3">
        <stop busStop="9891434002" duration="30"/>
    </trip>
    <trip id="53_bus_26:0" type="pt_bus" depart="134.0" departLane="best" from="43797348#0" to="31262349#1">
        <stop busStop="1416248982" duration="30"/>
    </trip>
    <trip id="54_bus_26:1" type="pt_bus" depart="136.0" departLane="best" from="554357604#0" to="1225399704#2">
        <stop busStop="5350038443" duration="30"/>
    </trip>
    <trip id="55_bus_27:0" type="pt_bus" depart="137.0" departLane="best" from="43797350" to="44737268#1">
        <stop busStop="8433060767" duration="30"/>
    </trip>
    <trip id="56_bus_27:1" type="pt_bus" depart="137.0" departLane="best" from="112538817#0" to="43797349">
        <stop busStop="8427025374" duration="30"/>
    </trip>
    <trip id="57_bus_28:0" type="pt_bus" depart="138.0" departLane="best" from="179267058" to="554357601">
        <stop busStop="26485800" duration="30"/>
    </trip>
    <trip id="58_bus_28:1" type="pt_bus" depart="139.0" departLane="best" from="554357601" to="437147507">
        <stop busStop="26485800" duration="30"/>
    </trip>
    <trip id="59_bus_2:0" type="pt_bus" depart="142.0" departLane="best" from="179267058" to="238829520#1">
        <stop busStop="2383701841" duration="30"/>
    </trip>
    <trip id="60_bus_2:1" type="pt_bus" depart="147.0" departLane="best" from="238829521#0" to="437147507">
    </trip>
    <trip id="61_bus_31:0" type="pt_bus" depart="149.0" departLane="best" from="-116581860#1" to="553501872">
        <stop busStop="8423406967" duration="30"/>
    </trip>
    <trip id="62_bus_31:1" type="pt_bus" depart="149.0" departLane="best" from="553501872" to="116581860#1">
        <stop busStop="8427149777" duration="30"/>
    </trip>
    <trip id="63_bus_32:0" type="pt_bus" depart="157.0" departLane="best" from="7732078" to="1225399704#2">
        <stop busStop="1493715148" duration="30"/>
    </trip>
    <trip id="64_bus_32:1" type="pt_bus" depart="158.0" departLane="best" from="43797348#0" to="7732078">
        <stop busStop="1416248982" duration="30"/>
    </trip>
    <trip id="65_bus_33:0" type="pt_bus" depart="158.0" departLane="best" from="-116581860#1" to="941581922">
        <stop busStop="8235796756" duration="30"/>
    </trip>
    <trip id="66_bus_33:1" type="pt_bus" depart="159.0" departLane="best" from="941581922" to="116581860#1">
        <stop busStop="8719540970" duration="30"/>
    </trip>
    <trip id="67_bus_34:0" type="pt_bus" depart="159.0" departLane="best" from="44288719#1" to="43797349">
        <stop busStop="5342725021" duration="30"/>
    </trip>
    <trip id="68_bus_34:1" type="pt_bus" depart="160.0" departLane="best" from="43797350" to="44288719#1">
        <stop busStop="8433060767" duration="30"/>
    </trip>
    <trip id="69_bus_35:0" type="pt_bus" depart="160.0" departLane="best" from="4346292#0" to="41699477#1">
        <stop busStop="8422641941" duration="30"/>
    </trip>
    <trip id="70_bus_35:1" type="pt_bus" depart="160.0" departLane="best" from="554505594" to="-4346292#1">
        <stop busStop="5351138581" duration="30"/>
    </trip>
    <trip id="71_bus_36:0" type="pt_bus" depart="165.0" departLane="best" from="44704759#0" to="116581860#1">
        <stop busStop="332054667" duration="30"/>
    </trip>
    <trip id="72_bus_36:1" type="pt_bus" depart="166.0" departLane="best" from="-116581860#1" to="32480293#7">
        <stop busStop="8423406977" duration="30"/>
    </trip>
    <trip id="73_bus_37:0" type="pt_bus" depart="167.0" departLane="best" from="112538817#0" to="43797349">
        <stop busStop="2508927633" duration="30"/>
    </trip>
    <trip id="74_bus_37:1" type="pt_bus" depart="173.0" departLane="best" from="43797350" to="335366388">
        <stop busStop="8433060767" duration="30"/>
    </trip>
    <trip id="75_bus_39:0" type="pt_bus" depart="178.0" departLane="best" from="27926837#2" to="27926837#2">
        <stop busStop="10814542230" duration="30"/>
    </trip>
    <trip id="76_bus_39:1" type="pt_bus" depart="179.0" departLane="best" from="-116581860#1" to="27926837#2">
        <stop busStop="8235796756" duration="30"/>
    </trip>
    <trip id="77_bus_3:0" type="pt_bus" depart="184.0" departLane="best" from="1137958523#0" to="4487679#9">
        <stop busStop="5970484986" duration="30"/>
    </trip>
    <trip id="78_bus_3:1" type="pt_bus" depart="187.0" departLane="best" from="422999624#0" to="1137958516#1">
    </trip>
    <trip id="79_bus_44:0" type="pt_bus" depart="188.0" departLane="best" from="554359457" to="238829520#1">
        <stop busStop="5350055328" duration="30"/>
    </trip>
    <trip id="80_bus_44:1" type="pt_bus" depart="189.0" departLane="best" from="238829521#0" to="554359457">
    </trip>
    <trip id="81_bus_45:0" type="pt_bus" depart="194.0" departLane="best" from="43797350" to="44737268#1">
        <stop busStop="8433060767" duration="30"/>
    </trip>
    <trip id="82_bus_45:1" type="pt_bus" depart="201.0" departLane="best" from="112538817#0" to="43797349">
        <stop busStop="8427025374" duration="30"/>
    </trip>
    <trip id="83_bus_46:0" type="pt_bus" depart="202.0" departLane="best" from="45084922#0" to="431767099#2">
        <stop busStop="8430162602" duration="30"/>
    </trip>
    <trip id="84_bus_46:1" type="pt_bus" depart="203.0" departLane="best" from="431767099#2" to="119181114#10">
        <stop busStop="8436098481" duration="30"/>
    </trip>
    <trip id="85_bus_50:0" type="pt_bus" depart="204.0" departLane="best" from="44704759#0" to="406007906#1">
        <stop busStop="332054667" duration="30"/>
    </trip>
    <trip id="86_bus_50:1" type="pt_bus" depart="218.0" departLane="best" from="406007906#1" to="32480293#7">
        <stop busStop="8423406988" duration="30"/>
    </trip>
    <trip id="87_bus_51:0" type="pt_bus" depart="222.0" departLane="best" from="112538800#0" to="984759713#1">
        <stop busStop="5385241329" duration="30"/>
    </trip>
    <trip id="88_bus_51:1" type="pt_bus" depart="227.0" departLane="best" from="984759713#1" to="554230311#1">
        <stop busStop="9104252079" duration="30"/>
    </trip>
    <trip id="89_bus_52:0" type="pt_bus" depart="227.0" departLane="best" from="807334396#0" to="7971499">
        <stop busStop="2383701841" duration="30"/>
    </trip>
    <trip id="90_bus_52:1" type="pt_bus" depart="227.0" departLane="best" from="7971499" to="1117997094#0">
        <stop busStop="5960796496" duration="30"/>
    </trip>
    <trip id="91_bus_53:0" type="pt_bus" depart="228.0" departLane="best" from="112538817#0" to="7971499">
        <stop busStop="8427025374" duration="30"/>
    </trip>
    <trip id="92_bus_53:1" type="pt_bus" depart="237.0" departLane="best" from="7971499" to="44737268#1">
        <stop busStop="5960796496" duration="30"/>
    </trip>
    <trip id="93_bus_5:0" type="pt_bus" depart="239.0" departLane="best" from="112538817#0" to="813598084">
        <stop busStop="8427025374" duration="30"/>
    </trip>
    <trip id="94_bus_5:1" type="pt_bus" depart="240.0" departLane="best" from="7971499" to="44737268#1">
        <stop busStop="21968139" duration="30"/>
    </trip>
    <trip id="95_bus_60:0" type="pt_bus" depart="241.0" departLane="best" from="1137958523#0" to="-909029029#0">
        <stop busStop="5970484986" duration="30"/>
    </trip>
    <trip id="96_bus_60:1" type="pt_bus" depart="253.0" departLane="best" from="4346292#0" to="4346292#12">
        <stop busStop="8440470099" duration="30"/>
    </trip>
    <trip id="97_bus_62:0" type="pt_bus" depart="253.0" departLane="best" from="687463490#0" to="7648767#2">
    </trip>
    <trip id="98_bus_62:1" type="pt_bus" depart="253.0" departLane="best" from="44704759#0" to="854461432">
        <stop busStop="332054667" duration="30"/>
    </trip>
    <trip id="99_bus_65:0" type="pt_bus" depart="253.0" departLane="best" from="7732078" to="116581860#1">
        <stop busStop="1493715148" duration="30"/>
    </trip>
    <trip id="100_bus_65:1" type="pt_bus" depart="253.0" departLane="best" from="-116581860#1" to="7732078">
        <stop busStop="8423406967" duration="30"/>
    </trip>
    <trip id="101_bus_6:0" type="pt_bus" depart="254.0" departLane="best" from="7732078" to="1225399704#2">
        <stop busStop="1493715148" duration="30"/>
    </trip>
    <trip id="102_bus_6:1" type="pt_bus" depart="258.0" departLane="best" from="43797348#0" to="7732078">
        <stop busStop="1416248982" duration="30"/>
    </trip>
    <trip id="103_bus_74:0" type="pt_bus" depart="260.0" departLane="best" from="112538800#0" to="238829520#1">
        <stop busStop="5385241329" duration="30"/>
    </trip>
    <trip id="104_bus_74:1" type="pt_bus" depart="262.0" departLane="best" from="238829521#0" to="554230311#1">
    </trip>
    <trip id="105_bus_75:0" type="pt_bus" depart="265.0" departLane="best" from="269291945#2" to="119181114#10">
        <stop busStop="3428239936" duration="30"/>
    </trip>
    <trip id="106_bus_75:1" type="pt_bus" depart="269.0" departLane="best" from="45084922#0" to="269291945#2">
        <stop busStop="8430162602" duration="30"/>
    </trip>
    <trip id="107_bus_9:0" type="pt_bus" depart="272.0" departLane="best" from="112538800#0" to="46098088#1">
        <stop busStop="5385241329" duration="30"/>
    </trip>
    <trip id="108_bus_9:1" type="pt_bus" depart="273.0" departLane="best" from="46098088#1" to="554230311#1">
        <stop busStop="2673249151" duration="30"/>
    </trip>
    <trip id="109_bus_C1:0" type="pt_bus" depart="275.0" departLane="best" from="71054743#0" to="238829520#1">
        <stop busStop="318914663" duration="30"/>
    </trip>
    <trip id="110_bus_C2:0" type="pt_bus" depart="280.0" departLane="best" from="238829521#0" to="4354750#0">
    </trip>
    <trip id="111_bus_M1:0" type="pt_bus" depart="283.0" departLane="best" from="312613200#0" to="813598084">
        <stop busStop="3423225672" duration="30"/>
    </trip>
    <trip id="112_bus_M1:1" type="pt_bus" depart="285.0" departLane="best" from="7971499" to="4328770#3">
        <stop busStop="21968139" duration="30"/>
    </trip>
    <trip id="113_bus_002:0" type="pt_bus" depart="291.0" departLane="best" from="4101292#0" to="-4346292#1">
    </trip>
    <trip id="114_bus_002:1" type="pt_bus" depart="291.0" departLane="best" from="4346292#0" to="4308074#8">
        <stop busStop="-5970506955" duration="30"/>
    </trip>
    <trip id="121_bus_N13:0" type="pt_bus" depart="321.0" departLane="best" from="128089326" to="43797349">
        <stop busStop="8423356496" duration="30"/>
    </trip>
    <trip id="122_bus_N13:1" type="pt_bus" depart="322.0" departLane="best" from="43797350" to="243991597">
        <stop busStop="8433060767" duration="30"/>
    </trip>
    <trip id="123_bus_N14:0" type="pt_bus" depart="323.0" departLane="best" from="128089326" to="43797349">
        <stop busStop="8423356496" duration="30"/>
    </trip>
    <trip id="124_bus_N14:1" type="pt_bus" depart="323.0" departLane="best" from="43797350" to="243991597">
        <stop busStop="8433060767" duration="30"/>
    </trip>
    <trip id="155_bus_N6:0" type="pt_bus" depart="401.0" departLane="best" from="910599752" to="437147507">
        <stop busStop="3964131000" duration="30"/>
    </trip>
    <trip id="156_bus_N6:1" type="pt_bus" depart="404.0" departLane="best" from="807334395" to="910599751">
        <stop busStop="8423256637" duration="30"/>
    </trip>
    <trip id="163_bus_203:0" type="pt_bus" depart="432.0" departLane="best" from="179267058" to="43797349">
        <stop busStop="8235796758" duration="30"/>
    </trip>
    <trip id="164_bus_203:1" type="pt_bus" depart="437.0" departLane="best" from="43797350" to="437147507">
        <stop busStop="8440879518" duration="30"/>
    </trip>
    <trip id="165_train_C-1:0" type="pt_train" depart="437.0" departLane="best" from="1067764157" to="197483308">
        <stop busStop="26080642" duration="30"/>
    </trip>
    <trip id="166_bus_41:0" type="pt_bus" depart="437.0" departLane="best" from="45084922#0" to="32151224#3">
        <stop busStop="8430162602" duration="30"/>
    </trip>
    <trip id="167_bus_10:0" type="pt_bus" depart="437.0" departLane="best" from="44288719#1" to="43797349">
        <stop busStop="562734686" duration="30"/>
    </trip>
    <trip id="168_bus_10:1" type="pt_bus" depart="441.0" departLane="best" from="43797350" to="44288719#1">
        <stop busStop="8433060767" duration="30"/>
    </trip>
    <trip id="169_train_C-8:0" type="pt_train" depart="448.0" departLane="best" from="1037434513" to="197483308">
        <stop busStop="4999319330" duration="30"/>
    </trip>
    <trip id="170_train_C-2:0" type="pt_train" depart="456.0" departLane="best" from="4812007" to="1037434512">
        <stop busStop="4999319331" duration="30"/>
    </trip>
    <trip id="171_bus_511:0" type="pt_bus" depart="457.0" departLane="best" from="28682154" to="941560393">
        <stop busStop="8719417517" duration="30"/>
    </trip>
    <trip id="172_bus_511:1" type="pt_bus" depart="459.0" departLane="best" from="941560394#1" to="251971165">
        <stop busStop="8719540960" duration="30"/>
    </trip>
    <trip id="173_bus_20:0" type="pt_bus" depart="465.0" departLane="best" from="7971499" to="437147507">
        <stop busStop="21968139" duration="30"/>
    </trip>
    <trip id="176_bus_41:1" type="pt_bus" depart="470.0" departLane="best" from="-32151224#6" to="119181114#10">
        <stop busStop="-8473691226" duration="30"/>
    </trip>
    <trip id="177_bus_523:1" type="pt_bus" depart="475.0" departLane="best" from="28682154" to="941560393">
        <stop busStop="8719417517" duration="30"/>
    </trip>
    <trip id="178_bus_500:0" type="pt_bus" depart="483.0" departLane="best" from="-116581860#1" to="27926837#2">
        <stop busStop="9307495431" duration="30"/>
    </trip>
    <trip id="179_train_R-1:0" type="pt_train" depart="484.0" departLane="best" from="695991680" to="695991678">
        <stop busStop="3660257614" duration="30"/>
    </trip>
    <trip id="180_bus_512:0" type="pt_bus" depart="484.0" departLane="best" from="28682154" to="941560393">
        <stop busStop="8719417517" duration="30"/>
    </trip>
    <trip id="181_train_C-3:0" type="pt_train" depart="485.0" departLane="best" from="695991680" to="695991678">
        <stop busStop="3660257614" duration="30"/>
    </trip>
    <trip id="182_train_C-8:1" type="pt_train" depart="497.0" departLane="best" from="4812007" to="1037434512">
        <stop busStop="4999319331" duration="30"/>
    </trip>
    <trip id="183_train_C-2:1" type="pt_train" depart="498.0" departLane="best" from="1037434513" to="197483308">
        <stop busStop="4999319330" duration="30"/>
    </trip>
    <trip id="184_subway_L6:0" type="pt_subway" depart="501.0" departLane="best" from="-549229849" to="-549229849">
        <stop busStop="-2609596245" duration="30"/>
        <stop busStop="-265068165" duration="30"/>
        <stop busStop="-265067803" duration="30"/>
        <stop busStop="-265067381" duration="30"/>
        <stop busStop="-5305486978" duration="30"/>
    </trip>
    <trip id="185_subway_L3:0" type="pt_subway" depart="505.0" departLane="best" from="443618649" to="443618649">
        <stop busStop="5303173542" duration="30"/>
        <stop busStop="21964104" duration="30"/>
        <stop busStop="21759678" duration="30"/>
        <stop busStop="21956103" duration="30"/>
    </trip>
    <trip id="186_train_C-10:0" type="pt_train" depart="508.0" departLane="best" from="4812007" to="741727698">
        <stop busStop="4999319331" duration="30"/>
    </trip>
    <trip id="187_train_C-7:0" type="pt_train" depart="509.0" departLane="best" from="1037434513" to="1054029153">
        <stop busStop="4999319330" duration="30"/>
    </trip>
    <trip id="188_train_C-10:1" type="pt_train" depart="515.0" departLane="best" from="1054029153" to="197483308">
        <stop busStop="26080642" duration="30"/>
    </trip>
    <trip id="189_train_C-7:1" type="pt_train" depart="516.0" departLane="best" from="741727698" to="741727698">
        <stop busStop="1493565879" duration="30"/>
    </trip>
    <trip id="190_subway_L2:0" type="pt_subway" depart="516.0" departLane="best" from="-442950303" to="-442950301#0">
        <stop busStop="-5303271992" duration="30"/>
        <stop busStop="-5303271994" duration="30"/>
        <stop busStop="-324376827" duration="30"/>
        <stop busStop="-25935011" duration="30"/>
        <stop busStop="-26066629" duration="30"/>
        <stop busStop="-26068173" duration="30"/>
        <stop busStop="-4405991654" duration="30"/>
        <stop busStop="-4405988107" duration="30"/>
        <stop busStop="-25903354" duration="30"/>
        <stop busStop="-25903355" duration="30"/>
        <stop busStop="-25903356" duration="30"/>
    </trip>
    <trip id="191_subway_L5:0" type="pt_subway" depart="517.0" departLane="best" from="695991673#2" to="695991675">
        <stop busStop="21759690" duration="30"/>
        <stop busStop="5303127349" duration="30"/>
        <stop busStop="5303127353" duration="30"/>
        <stop busStop="22032372" duration="30"/>
        <stop busStop="25906279" duration="30"/>
        <stop busStop="5303127355" duration="30"/>
        <stop busStop="255881693" duration="30"/>
    </trip>
    <trip id="192_subway_R:0" type="pt_subway" depart="517.0" departLane="best" from="549151323" to="-442950334">
        <stop busStop="-5304749213" duration="30"/>
        <stop busStop="-4405988225" duration="30"/>
    </trip>
    <trip id="193_subway_L1:0" type="pt_subway" depart="522.0" departLane="best" from="511288266#0" to="511288266#2">
        <stop busStop="299644680" duration="30"/>
        <stop busStop="299515114" duration="30"/>
        <stop busStop="5299314589" duration="30"/>
        <stop busStop="324391382" duration="30"/>
        <stop busStop="324391956" duration="30"/>
        <stop busStop="5299314586" duration="30"/>
        <stop busStop="5299314584" duration="30"/>
        <stop busStop="5299314582" duration="30"/>
        <stop busStop="5299314580" duration="30"/>
        <stop busStop="26340396" duration="30"/>
        <stop busStop="26340397" duration="30"/>
        <stop busStop="26494720" duration="30"/>
        <stop busStop="26494721" duration="30"/>
        <stop busStop="323411634" duration="30"/>
        <stop busStop="5299314574" duration="30"/>
        <stop busStop="323403727" duration="30"/>
        <stop busStop="323400134" duration="30"/>
        <stop busStop="323387579" duration="30"/>
        <stop busStop="324398584" duration="30"/>
        <stop busStop="330235720" duration="30"/>
        <stop busStop="330235642" duration="30"/>
        <stop busStop="330236023" duration="30"/>
        <stop busStop="330236831" duration="30"/>
        <stop busStop="330236828" duration="30"/>
        <stop busStop="330237676" duration="30"/>
        <stop busStop="330238287" duration="30"/>
        <stop busStop="330238286" duration="30"/>
    </trip>
    <trip id="194_bus_518:0" type="pt_bus" depart="523.0" departLane="best" from="28682154" to="941560393">
        <stop busStop="8719417518" duration="30"/>
    </trip>