<?xml version="1.0" encoding="UTF-8"?>

<!-- generated on 2024-07-01 21:01:47.704886 by osmWebWizard.py v1_19_0+0000-baa66a0f364
<configuration>
    <net-file value="C:\Users\Jaime\Sumo\2024-07-01-21-01-21\osm.net.xml.gz"/>
    <output-trip-file value="C:\Users\Jaime\Sumo\2024-07-01-21-01-21\osm.passenger.trips.xml"/>
    <route-file value="C:\Users\Jaime\Sumo\2024-07-01-21-01-21\osm.passenger.rou.xml"/>
    <prefix value="veh"/>
    <trip-attributes value="departLane=&quot;best&quot;"/>
    <fringe-start-attributes value="departSpeed=&quot;max&quot;"/>
    <vehicle-class value="passenger"/>
    <lanes value="True"/>
    <fringe-factor value="5"/>
    <allow-fringe.min-length value="1000.0"/>
    <via-edge-types value="highway.motorway,highway.motorway_link,highway.trunk_link,highway.primary_link,highway.secondary_link,highway.tertiary_link"/>
    <min-distance value="300.0"/>
    <min-distance.fringe value="10.0"/>
    <remove-loops value="True"/>
    <validate value="True"/>
    <end value="4000.0"/>
    <insertion-density value="12.0"/>
</configuration>
-->

<!-- generated on 2024-07-01 21:01:47 by Eclipse SUMO duarouter Version 1.19.0
<configuration xmlns:xsi="http://www.w3.org/2001/XMLSchema-instance" xsi:noNamespaceSchemaLocation="http://sumo.dlr.de/xsd/duarouterConfiguration.xsd">

    <input>
        <net-file value="C:\Users\Jaime\Sumo\2024-07-01-21-01-21\osm.net.xml.gz"/>
        <route-files value="C:\Users\Jaime\Sumo\2024-07-01-21-01-21\osm.passenger.trips.xml"/>
    </input>

    <output>
        <output-file value="C:\Users\Jaime\Sumo\2024-07-01-21-01-21\osm.passenger.trips.xml.tmp"/>
        <alternatives-output value="NUL"/>
        <write-trips value="true"/>
    </output>

    <processing>
        <remove-loops value="true"/>
    </processing>

    <time>
        <begin value="0.0"/>
        <end value="4000.0"/>
    </time>

    <report>
        <no-warnings value="true"/>
        <ignore-errors value="true"/>
        <no-step-log value="true"/>
    </report>

</configuration>
-->

<routes xmlns:xsi="http://www.w3.org/2001/XMLSchema-instance" xsi:noNamespaceSchemaLocation="http://sumo.dlr.de/xsd/routes_file.xsd">
    <vType id="veh_passenger" vClass="passenger"/>
    <trip id="veh0" type="veh_passenger" depart="0.00" departLane="best" from="359739473#5" to="-18831512#0"/>
    <trip id="veh1" type="veh_passenger" depart="3.95" departLane="best" from="19916059" to="18504649#5"/>
    <trip id="veh2" type="veh_passenger" depart="7.89" departLane="best" from="4744989#0" to="423232178#6"/>
    <trip id="veh3" type="veh_passenger" depart="11.84" departLane="best" from="553234917#0" to="10427092#0"/>
    <trip id="veh6" type="veh_passenger" depart="23.68" departLane="best" from="19918287#0" to="126304603#2"/>
    <trip id="veh7" type="veh_passenger" depart="27.63" departLane="best" from="359739475#2" to="11301537#5"/>
    <trip id="veh8" type="veh_passenger" depart="31.58" departLane="best" departSpeed="max" from="1293350699" to="295263592"/>
    <trip id="veh9" type="veh_passenger" depart="35.53" departLane="best" from="491295302#1" to="1213170279"/>
    <trip id="veh10" type="veh_passenger" depart="39.47" departLane="best" from="491295302#0" to="450574613"/>
    <trip id="veh12" type="veh_passenger" depart="47.37" departLane="best" from="753730064#1" to="22588067#0"/>
    <trip id="veh13" type="veh_passenger" depart="51.32" departLane="best" from="532696001#1" to="307054781#5"/>
    <trip id="veh15" type="veh_passenger" depart="59.21" departLane="best" from="281056199#9" to="886813239#1"/>
    <trip id="veh16" type="veh_passenger" depart="63.16" departLane="best" from="237506945#3" to="291731094#2"/>
    <trip id="veh17" type="veh_passenger" depart="67.11" departLane="best" departSpeed="max" from="519375848#0" to="312564230#4"/>
    <trip id="veh18" type="veh_passenger" depart="71.05" departLane="best" from="542294735" to="295215803#6"/>
    <trip id="veh19" type="veh_passenger" depart="75.00" departLane="best" departSpeed="max" from="4743386#0" to="28460895#0"/>
    <trip id="veh23" type="veh_passenger" depart="90.79" departLane="best" from="236322513#0" to="135115897#7"/>
    <trip id="veh25" type="veh_passenger" depart="98.69" departLane="best" departSpeed="max" from="359739475#0" to="307054786#1"/>
    <trip id="veh26" type="veh_passenger" depart="102.63" departLane="best" from="1214315730" to="-4743459#9"/>
    <trip id="veh27" type="veh_passenger" depart="106.58" departLane="best" from="1206387470#0" to="237522641#0"/>
    <trip id="veh28" type="veh_passenger" depart="110.53" departLane="best" from="920602947#7" to="336830719#1"/>
    <trip id="veh33" type="veh_passenger" depart="130.27" departLane="best" departSpeed="max" from="126301387#0" to="68506253#2"/>
    <trip id="veh34" type="veh_passenger" depart="134.21" departLane="best" from="545937949#0" to="223928339#1"/>
    <trip id="veh35" type="veh_passenger" depart="138.16" departLane="best" from="12373020#2" to="237529472#1"/>
    <trip id="veh36" type="veh_passenger" depart="142.11" departLane="best" from="591636792#0" to="237787045#0"/>
    <trip id="veh39" type="veh_passenger" depart="153.95" departLane="best" from="295268540#6" to="553238924#0"/>
    <trip id="veh42" type="veh_passenger" depart="165.79" departLane="best" from="10427092#0" to="-289451633#2"/>
    <trip id="veh43" type="veh_passenger" depart="169.74" departLane="best" from="4809721#1" to="237715988#0"/>
    <trip id="veh45" type="veh_passenger" depart="177.63" departLane="best" from="882072067#0" to="542294735"/>
    <trip id="veh46" type="veh_passenger" depart="181.58" departLane="best" from="1213170279" to="4743454#1"/>
    <trip id="veh49" type="veh_passenger" depart="193.42" departLane="best" departSpeed="max" from="1112801410#0" to="237725937#13"/>
    <trip id="veh50" type="veh_passenger" depart="197.37" departLane="best" from="22658031#6" to="753730064#0"/>
    <trip id="veh51" type="veh_passenger" depart="201.32" departLane="best" from="545937949#0" to="19916069#0"/>
    <trip id="veh52" type="veh_passenger" depart="205.27" departLane="best" from="246630090#6" to="1235264094#0"/>
    <trip id="veh53" type="veh_passenger" depart="209.21" departLane="best" from="591631645#2" to="-922450172"/>
    <trip id="veh54" type="veh_passenger" depart="213.16" departLane="best" from="20355312#1" to="336830717"/>
    <trip id="veh55" type="veh_passenger" depart="217.11" departLane="best" from="312564230#11" to="1213170282"/>
    <trip id="veh57" type="veh_passenger" depart="225.00" departLane="best" from="4785424#1" to="251073272#3"/>
    <trip id="veh58" type="veh_passenger" depart="228.95" departLane="best" from="-10428122#0" to="22416835#0"/>
    <trip id="veh59" type="veh_passenger" depart="232.90" departLane="best" from="1235264093#1" to="645915432#1"/>
    <trip id="veh60" type="veh_passenger" depart="236.85" departLane="best" departSpeed="max" from="546184103#0" to="-525588035#4"/>
    <trip id="veh61" type="veh_passenger" depart="240.79" departLane="best" departSpeed="max" from="216972169" to="423231444#1"/>
    <trip id="veh63" type="veh_passenger" depart="248.69" departLane="best" departSpeed="max" from="882175535#1" to="243591204#0"/>
    <trip id="veh65" type="veh_passenger" depart="256.58" departLane="best" from="4785133#0" to="11680101#0"/>
    <trip id="veh66" type="veh_passenger" depart="260.53" departLane="best" departSpeed="max" from="240873131#0" to="287860388#0"/>
    <trip id="veh68" type="veh_passenger" depart="268.43" departLane="best" from="591631645#2" to="140001504#3"/>
    <trip id="veh70" type="veh_passenger" depart="276.32" departLane="best" from="12372966#9" to="-223928337#6"/>
    <trip id="veh72" type="veh_passenger" depart="284.22" departLane="best" from="237715988#3" to="246640824#10"/>
    <trip id="veh73" type="veh_passenger" depart="288.16" departLane="best" from="1112801410#5" to="18504649#8"/>
    <trip id="veh74" type="veh_passenger" depart="292.11" departLane="best" from="22658031#11" to="295263591#0"/>
    <trip id="veh75" type="veh_passenger" depart="296.06" departLane="best" from="140001504#2" to="173769630#3"/>
    <trip id="veh76" type="veh_passenger" depart="300.01" departLane="best" from="4745025#2" to="328020781#1"/>
    <trip id="veh77" type="veh_passenger" depart="303.95" departLane="best" from="135115897#5" to="553772888#4"/>
    <trip id="veh78" type="veh_passenger" depart="307.90" departLane="best" from="537787889#2" to="4752296#2"/>
    <trip id="veh80" type="veh_passenger" depart="315.80" departLane="best" from="126302004" to="11680101#17"/>
    <trip id="veh83" type="veh_passenger" depart="327.64" departLane="best" from="491295302#0" to="12373020#4"/>
    <trip id="veh84" type="veh_passenger" depart="331.59" departLane="best" from="10851731#3" to="237725937#11"/>
    <trip id="veh85" type="veh_passenger" depart="335.53" departLane="best" from="237655875#1" to="241618932#13"/>
    <trip id="veh86" type="veh_passenger" depart="339.48" departLane="best" departSpeed="max" from="474464196#0" to="423231444#4"/>
    <trip id="veh87" type="veh_passenger" depart="343.43" departLane="best" from="918410082#1" to="10851770#6"/>
    <trip id="veh89" type="veh_passenger" depart="351.32" departLane="best" from="542294735" to="18831579#1"/>
    <trip id="veh90" type="veh_passenger" depart="355.27" departLane="best" from="1227367188#2" to="237725962#0"/>
    <trip id="veh92" type="veh_passenger" depart="363.16" departLane="best" from="-185957649#1" to="62126122#1"/>
    <trip id="veh93" type="veh_passenger" depart="367.11" departLane="best" from="287856806#0" to="-306692813#0"/>
    <trip id="veh95" type="veh_passenger" depart="375.01" departLane="best" from="-882072061" to="62213293#3"/>
    <trip id="veh96" type="veh_passenger" depart="378.95" departLane="best" from="532696001#1" to="1219370223"/>
    <trip id="veh97" type="veh_passenger" depart="382.90" departLane="best" from="241868444#2" to="141212243#1"/>
    <trip id="veh98" type="veh_passenger" depart="386.85" departLane="best" departSpeed="max" from="237506950#0" to="920602947#11"/>
    <trip id="veh100" type="veh_passenger" depart="394.74" departLane="best" from="753730064#1" to="9412955#2"/>
    <trip id="veh103" type="veh_passenger" depart="406.59" departLane="best" from="880144105" to="295215805#2"/>
    <trip id="veh104" type="veh_passenger" depart="410.53" departLane="best" departSpeed="max" from="283764984#0" to="4747018"/>
    <trip id="veh105" type="veh_passenger" depart="414.48" departLane="best" departSpeed="max" from="-334669381#6" to="295263589#4"/>
    <trip id="veh106" type="veh_passenger" depart="418.43" departLane="best" from="246638747#1" to="532696011#1"/>
    <trip id="veh111" type="veh_passenger" depart="438.17" departLane="best" from="550620361#1" to="18618300#1"/>
    <trip id="veh113" type="veh_passenger" depart="446.06" departLane="best" departSpeed="max" from="237649293#0" to="295263589#4"/>
    <trip id="veh115" type="veh_passenger" depart="453.96" departLane="best" from="12373020#3" to="4743435#8"/>
    <trip id="veh117" type="veh_passenger" depart="461.85" departLane="best" from="44027589#0" to="20475905#2"/>
    <trip id="veh118" type="veh_passenger" depart="465.80" departLane="best" from="223928339#2" to="-4750608"/>
    <trip id="veh119" type="veh_passenger" depart="469.75" departLane="best" departSpeed="max" from="-4747013" to="237787045#0"/>
    <trip id="veh120" type="veh_passenger" depart="473.69" departLane="best" from="970754144#0" to="9412955#3"/>
    <trip id="veh121" type="veh_passenger" depart="477.64" departLane="best" departSpeed="max" from="-4747013" to="141212243#1"/>
    <trip id="veh123" type="veh_passenger" depart="485.54" departLane="best" departSpeed="max" from="546184103#0" to="546148432#2"/>
    <trip id="veh126" type="veh_passenger" depart="497.38" departLane="best" from="312564230#2" to="-922816016#0"/>
    <trip id="veh127" type="veh_passenger" depart="501.33" departLane="best" from="403600283#1" to="1213170280#1"/>
    <trip id="veh128" type="veh_passenger" depart="505.27" departLane="best" from="491443474#0" to="20475905#2"/>
    <trip id="veh129" type="veh_passenger" depart="509.22" departLane="best" from="423231444#1" to="68506253#1"/>
    <trip id="veh130" type="veh_passenger" depart="513.17" departLane="best" from="11299615#4" to="1117840336#0"/>
    <trip id="veh131" type="veh_passenger" depart="517.12" departLane="best" departSpeed="max" from="1112801410#0" to="291731094#4"/>
    <trip id="veh132" type="veh_passenger" depart="521.06" departLane="best" from="19914923#1" to="307054784#0"/>
    <trip id="veh133" type="veh_passenger" depart="525.01" departLane="best" departSpeed="max" from="352987332#0" to="19916069#1"/>
    <trip id="veh134" type="veh_passenger" depart="528.96" departLane="best" from="241868444#9" to="553772888#4"/>
    <trip id="veh135" type="veh_passenger" depart="532.90" departLane="best" from="532696001#0" to="10851731#2"/>
    <trip id="veh138" type="veh_passenger" depart="544.75" departLane="best" from="353421098#1" to="19915632#1"/>
    <trip id="veh139" type="veh_passenger" depart="548.69" departLane="best" from="4746868#1" to="-289451633#2"/>
    <trip id="veh140" type="veh_passenger" depart="552.64" departLane="best" from="-4752296#4" to="547249781#0"/>
    <trip id="veh141" type="veh_passenger" depart="556.59" departLane="best" departSpeed="max" from="591631503#0" to="28460893#0"/>
    <trip id="veh142" type="veh_passenger" depart="560.54" departLane="best" from="11680101#6" to="11301537#6"/>
    <trip id="veh143" type="veh_passenger" depart="564.48" departLane="best" from="216972188#1" to="553238924#0"/>
    <trip id="veh144" type="veh_passenger" depart="568.43" departLane="best" from="481121898#0" to="542294735"/>
    <trip id="veh145" type="veh_passenger" depart="572.38" departLane="best" from="553983046" to="140001504#2"/>
    <trip id="veh146" type="veh_passenger" depart="576.33" departLane="best" from="185957649#1" to="1108368269#1"/>
    <trip id="veh147" type="veh_passenger" depart="580.27" departLane="best" from="4785424#4" to="547249781#3"/>
    <trip id="veh151" type="veh_passenger" depart="596.06" departLane="best" from="491295302#2" to="546148432#2"/>
    <trip id="veh153" type="veh_passenger" depart="603.96" departLane="best" from="22588050#1" to="673080415#1"/>
    <trip id="veh156" type="veh_passenger" depart="615.80" departLane="best" from="545937948#0" to="537787889#2"/>
    <trip id="veh157" type="veh_passenger" depart="619.75" departLane="best" departSpeed="max" from="1293350699" to="491295302#7"/>
    <trip id="veh158" type="veh_passenger" depart="623.70" departLane="best" from="237725955#5" to="20475905#2"/>
    <trip id="veh159" type="veh_passenger" depart="627.64" departLane="best" from="481121897#1" to="18512190#0"/>
    <trip id="veh160" type="veh_passenger" depart="631.59" departLane="best" from="-185957649#1" to="12373020#5"/>
    <trip id="veh161" type="veh_passenger" depart="635.54" departLane="best" from="22431624#1" to="545030298"/>
    <trip id="veh164" type="veh_passenger" depart="647.38" departLane="best" departSpeed="max" from="68506233#0" to="1117835661"/>
    <trip id="veh165" type="veh_passenger" depart="651.33" departLane="best" from="882072066" to="1235264094#0"/>
    <trip id="veh166" type="veh_passenger" depart="655.28" departLane="best" from="8380812#2" to="19916419#2"/>
    <trip id="veh167" type="veh_passenger" depart="659.22" departLane="best" departSpeed="max" from="1112801410#0" to="237725937#13"/>
    <trip id="veh168" type="veh_passenger" depart="663.17" departLane="best" departSpeed="max" from="474464196#0" to="223928339#0"/>
    <trip id="veh169" type="veh_passenger" depart="667.12" departLane="best" from="312564227" to="4745021#1"/>
    <trip id="veh170" type="veh_passenger" depart="671.07" departLane="best" from="237522641#1" to="295215803#4"/>
    <trip id="veh172" type="veh_passenger" depart="678.96" departLane="best" departSpeed="max" from="283764984#0" to="4743446#1"/>
    <trip id="veh173" type="veh_passenger" depart="682.91" departLane="best" from="4746868#3" to="423231444#0"/>
    <trip id="veh175" type="veh_passenger" depart="690.80" departLane="best" from="423231444#4" to="22438773#1"/>
    <trip id="veh176" type="veh_passenger" depart="694.75" departLane="best" from="223928339#1" to="532696001#1"/>
    <trip id="veh177" type="veh_passenger" depart="698.70" departLane="best" departSpeed="max" from="4743459#1" to="20475905#2"/>
    <trip id="veh179" type="veh_passenger" depart="706.59" departLane="best" from="1112801410#9" to="237715987#1"/>
    <trip id="veh180" type="veh_passenger" depart="710.54" departLane="best" from="68506238#2" to="436888031"/>
    <trip id="veh181" type="veh_passenger" depart="714.49" departLane="best" departSpeed="max" from="591631503#0" to="312564230#12"/>
    <trip id="veh182" type="veh_passenger" depart="718.43" departLane="best" from="20475367#0" to="287856806#0"/>
    <trip id="veh184" type="veh_passenger" depart="726.33" departLane="best" from="237715986#2" to="295215809#0"/>
    <trip id="veh186" type="veh_passenger" depart="734.22" departLane="best" from="237725937#10" to="141212243#1"/>
    <trip id="veh187" type="veh_passenger" depart="738.17" departLane="best" from="240299472#24" to="553238924#0"/>
    <trip id="veh188" type="veh_passenger" depart="742.12" departLane="best" from="481121898#0" to="1221718176#0"/>
    <trip id="veh189" type="veh_passenger" depart="746.07" departLane="best" departSpeed="max" from="882175535#1" to="246640823#0"/>
    <trip id="veh190" type="veh_passenger" depart="750.01" departLane="best" departSpeed="max" from="352987332#0" to="22588050#1"/>
    <trip id="veh192" type="veh_passenger" depart="757.91" departLane="best" from="44027589#0" to="18504649#8"/>
    <trip id="veh195" type="veh_passenger" depart="769.75" departLane="best" departSpeed="max" from="237649293#0" to="328020781#1"/>
    <trip id="veh196" type="veh_passenger" depart="773.70" departLane="best" from="1235264095#2" to="449991649#2"/>
    <trip id="veh197" type="veh_passenger" depart="777.65" departLane="best" from="245214529#1" to="18618230"/>
    <trip id="veh198" type="veh_passenger" depart="781.59" departLane="best" from="403600283#3" to="1185062404"/>
    <trip id="veh199" type="veh_passenger" depart="785.54" departLane="best" from="1108368269#1" to="237715988#3"/>
    <trip id="veh200" type="veh_passenger" depart="789.49" departLane="best" from="121830607#1" to="8380812#0"/>
    <trip id="veh203" type="veh_passenger" depart="801.33" departLane="best" from="22658031#2" to="491295302#0"/>
    <trip id="veh204" type="veh_passenger" depart="805.28" departLane="best" from="423232178#6" to="-922816016#1"/>
    <trip id="veh207" type="veh_passenger" depart="817.12" departLane="best" departSpeed="max" from="4743459#1" to="246638748#2"/>
    <trip id="veh208" type="veh_passenger" depart="821.07" departLane="best" departSpeed="max" from="519375848#0" to="287856806#0"/>
    <trip id="veh209" type="veh_passenger" depart="825.02" departLane="best" from="553772888#4" to="4747015#0"/>
    <trip id="veh210" type="veh_passenger" depart="828.96" departLane="best" departSpeed="max" from="240873131#0" to="18968925#2"/>
    <trip id="veh212" type="veh_passenger" depart="836.86" departLane="best" from="4785133#0" to="246640824#4"/>
    <trip id="veh213" type="veh_passenger" depart="840.81" departLane="best" from="-334669381#2" to="19918647"/>
    <trip id="veh215" type="veh_passenger" depart="848.70" departLane="best" departSpeed="max" from="283764984#0" to="11680101#7"/>
    <trip id="veh216" type="veh_passenger" depart="852.65" departLane="best" from="140001504#3" to="449991649#1"/>
    <trip id="veh217" type="veh_passenger" depart="856.60" departLane="best" from="4743435#7" to="-4743459#1"/>
    <trip id="veh219" type="veh_passenger" depart="864.49" departLane="best" departSpeed="max" from="237649293#0" to="135115897#1"/>
    <trip id="veh220" type="veh_passenger" depart="868.44" departLane="best" from="237649293#1" to="553772888#1"/>
    <trip id="veh221" type="veh_passenger" depart="872.39" departLane="best" from="295268540#4" to="449991649#1"/>
    <trip id="veh223" type="veh_passenger" depart="880.28" departLane="best" departSpeed="max" from="237506950#0" to="1185062404"/>
    <trip id="veh224" type="veh_passenger" depart="884.23" departLane="best" from="22689703#2" to="4752296#2"/>
    <trip id="veh225" type="veh_passenger" depart="888.17" departLane="best" from="532696011#1" to="753730058#1"/>
    <trip id="veh227" type="veh_passenger" depart="896.07" departLane="best" from="284142074#0" to="307054781#5"/>
    <trip id="veh228" type="veh_passenger" depart="900.02" departLane="best" departSpeed="max" from="1293350699" to="173769630#1"/>
    <trip id="veh230" type="veh_passenger" depart="907.91" departLane="best" from="22658031#0" to="436888031"/>
    <trip id="veh231" type="veh_passenger" depart="911.86" departLane="best" from="237566151#1" to="121830607#4"/>
    <trip id="veh232" type="veh_passenger" depart="915.81" departLane="best" from="237914536#2" to="11301537#6"/>
    <trip id="veh233" type="veh_passenger" depart="919.75" departLane="best" from="328020781#1" to="-18831512#0"/>
    <trip id="veh234" type="veh_passenger" depart="923.70" departLane="best" from="237525159#0" to="293858825"/>
    <trip id="veh235" type="veh_passenger" depart="927.65" departLane="best" from="19918287#1" to="342792644#1"/>
    <trip id="veh237" type="veh_passenger" depart="935.54" departLane="best" departSpeed="max" from="126301387#0" to="22431624#1"/>
    <trip id="veh239" type="veh_passenger" depart="943.44" departLane="best" from="4750623#1" to="-525588035#4"/>
    <trip id="veh244" type="veh_passenger" depart="963.18" departLane="best" from="359739475#4" to="4752296#4"/>
    <trip id="veh245" type="veh_passenger" depart="967.12" departLane="best" from="-135115897#0" to="1213170282"/>
    <trip id="veh246" type="veh_passenger" depart="971.07" departLane="best" from="1112801410#8" to="421452585#2"/>
    <trip id="veh247" type="veh_passenger" depart="975.02" departLane="best" from="450574613" to="4785133#2"/>
    <trip id="veh248" type="veh_passenger" depart="978.97" departLane="best" from="1213170282" to="307054786#0"/>
    <trip id="veh249" type="veh_passenger" depart="982.91" departLane="best" from="4747018" to="1112801410#9"/>
    <trip id="veh250" type="veh_passenger" depart="986.86" departLane="best" from="491443474#2" to="880144105"/>
    <trip id="veh251" type="veh_passenger" depart="990.81" departLane="best" departSpeed="max" from="1112801410#0" to="-18831512#0"/>
    <trip id="veh252" type="veh_passenger" depart="994.76" departLane="best" from="223928337#6" to="436888031"/>
    <trip id="veh256" type="veh_passenger" depart="1010.55" departLane="best" from="532696011#0" to="307054781#2"/>
    <trip id="veh257" type="veh_passenger" depart="1014.49" departLane="best" from="1112801410#5" to="919076823"/>
    <trip id="veh259" type="veh_passenger" depart="1022.39" departLane="best" from="237715986#1" to="235748484#3"/>
    <trip id="veh260" type="veh_passenger" depart="1026.34" departLane="best" from="246638755#0" to="22658031#11"/>
    <trip id="veh261" type="veh_passenger" depart="1030.28" departLane="best" from="532696001#1" to="491443474#0"/>
    <trip id="veh263" type="veh_passenger" depart="1038.18" departLane="best" from="4743435#9" to="237725937#14"/>
    <trip id="veh264" type="veh_passenger" depart="1042.13" departLane="best" from="474464196#5" to="880144105"/>
    <trip id="veh265" type="veh_passenger" depart="1046.07" departLane="best" from="18833661#8" to="491295302#4"/>
    <trip id="veh266" type="veh_passenger" depart="1050.02" departLane="best" departSpeed="max" from="283764984#0" to="243591201#1"/>
    <trip id="veh268" type="veh_passenger" depart="1057.92" departLane="best" from="18833661#3" to="532696011#1"/>
    <trip id="veh269" type="veh_passenger" depart="1061.86" departLane="best" departSpeed="max" from="519375848#0" to="1028689883#1"/>
    <trip id="veh270" type="veh_passenger" depart="1065.81" departLane="best" departSpeed="max" from="546184103#0" to="18618230"/>
    <trip id="veh272" type="veh_passenger" depart="1073.70" departLane="best" from="532696011#0" to="1235264095#2"/>
    <trip id="veh273" type="veh_passenger" depart="1077.65" departLane="best" from="22658031#2" to="546148432#2"/>
    <trip id="veh276" type="veh_passenger" depart="1089.49" departLane="best" departSpeed="max" from="882175535#1" to="4743454#0"/>
    <trip id="veh278" type="veh_passenger" depart="1097.39" departLane="best" from="449991617#9" to="352987332#5"/>
    <trip id="veh280" type="veh_passenger" depart="1105.28" departLane="best" from="1065887038" to="18504649#1"/>
    <trip id="veh281" type="veh_passenger" depart="1109.23" departLane="best" from="449991617#9" to="20475905#2"/>
    <trip id="veh282" type="veh_passenger" depart="1113.18" departLane="best" from="295263592" to="241868444#1"/>
    <trip id="veh283" type="veh_passenger" depart="1117.13" departLane="best" departSpeed="max" from="281056199#0" to="237715988#3"/>
    <trip id="veh285" type="veh_passenger" depart="1125.02" departLane="best" from="4743368#1" to="19918552#2"/>
    <trip id="veh287" type="veh_passenger" depart="1132.92" departLane="best" from="1235264094#0" to="1117840346#0"/>
    <trip id="veh290" type="veh_passenger" depart="1144.76" departLane="best" from="241868444#11" to="4743458#4"/>
    <trip id="veh291" type="veh_passenger" depart="1148.71" departLane="best" from="887682495#0" to="246640824#6"/>
    <trip id="veh292" type="veh_passenger" depart="1152.65" departLane="best" departSpeed="max" from="19918287#0" to="10851867#3"/>
    <trip id="veh293" type="veh_passenger" depart="1156.60" departLane="best" from="1235264095#1" to="18512190#0"/>
    <trip id="veh294" type="veh_passenger" depart="1160.55" departLane="best" from="421452585#4" to="-126301387#1"/>
    <trip id="veh295" type="veh_passenger" depart="1164.50" departLane="best" from="281056199#4" to="22416746"/>
    <trip id="veh296" type="veh_passenger" depart="1168.44" departLane="best" from="882828677" to="291731094#4"/>
    <trip id="veh297" type="veh_passenger" depart="1172.39" departLane="best" from="449991649#2" to="11301537#1"/>
    <trip id="veh298" type="veh_passenger" depart="1176.34" departLane="best" from="545718433#2" to="243591204#3"/>
    <trip id="veh299" type="veh_passenger" depart="1180.29" departLane="best" from="545937948#0" to="295215799#2"/>
    <trip id="veh300" type="veh_passenger" depart="1184.23" departLane="best" from="238326403#0" to="237725937#3"/>
    <trip id="veh301" type="veh_passenger" depart="1188.18" departLane="best" from="68506242#1" to="241868444#7"/>
    <trip id="veh302" type="veh_passenger" depart="1192.13" departLane="best" departSpeed="max" from="-4747013" to="328020781#1"/>
    <trip id="veh306" type="veh_passenger" depart="1207.92" departLane="best" from="4755002#2" to="307054784#4"/>
    <trip id="veh309" type="veh_passenger" depart="1219.76" departLane="best" from="922816016#0" to="20475905#2"/>
    <trip id="veh310" type="veh_passenger" depart="1223.71" departLane="best" from="328020781#1" to="309051293#0"/>
    <trip id="veh311" type="veh_passenger" depart="1227.66" departLane="best" from="4745025#0" to="68506265#3"/>
    <trip id="veh312" type="veh_passenger" depart="1231.60" departLane="best" from="12373020#5" to="140001504#2"/>
    <trip id="veh313" type="veh_passenger" depart="1235.55" departLane="best" from="421452585#2" to="1214207624#1"/>
    <trip id="veh314" type="veh_passenger" depart="1239.50" departLane="best" from="-10851867#4" to="237725962#3"/>
    <trip id="veh316" type="veh_passenger" depart="1247.39" departLane="best" from="140001504#3" to="4743364#0"/>
    <trip id="veh317" type="veh_passenger" depart="1251.34" departLane="best" from="4743368#1" to="237787045#0"/>
    <trip id="veh318" type="veh_passenger" depart="1255.29" departLane="best" from="449991617#6" to="62126122#2"/>
    <trip id="veh322" type="veh_passenger" depart="1271.08" departLane="best" departSpeed="max" from="359739475#0" to="556491373#0"/>
    <trip id="veh323" type="veh_passenger" depart="1275.02" departLane="best" departSpeed="max" from="519375848#0" to="4752296#4"/>
    <trip id="veh325" type="veh_passenger" depart="1282.92" departLane="best" from="19918552#3" to="11300426#2"/>
    <trip id="veh326" type="veh_passenger" depart="1286.87" departLane="best" from="449991617#8" to="473410800"/>
    <trip id="veh327" type="veh_passenger" depart="1290.81" departLane="best" from="68506253#1" to="246630090#5"/>
    <trip id="veh330" type="veh_passenger" depart="1302.66" departLane="best" from="22415007#1" to="19915632#0"/>
    <trip id="veh331" type="veh_passenger" depart="1306.60" departLane="best" from="10427092#1" to="8380812#2"/>
    <trip id="veh332" type="veh_passenger" depart="1310.55" departLane="best" from="526210689#0" to="295215799#4"/>
    <trip id="veh333" type="veh_passenger" depart="1314.50" departLane="best" from="68506265#3" to="970754150#0"/>
    <trip id="veh337" type="veh_passenger" depart="1330.29" departLane="best" from="591636792#1" to="1235264095#2"/>
    <trip id="veh339" type="veh_passenger" depart="1338.18" departLane="best" from="243591201#2" to="10851731#1"/>
    <trip id="veh344" type="veh_passenger" depart="1357.92" departLane="best" from="22658031#6" to="223928339#1"/>
    <trip id="veh346" type="veh_passenger" depart="1365.82" departLane="best" from="237566145#0" to="246638756#4"/>
    <trip id="veh348" type="veh_passenger" depart="1373.71" departLane="best" departSpeed="max" from="283764984#0" to="237715986#0"/>
    <trip id="veh349" type="veh_passenger" depart="1377.66" departLane="best" from="1227367187#3" to="22724606"/>