<?xml version="1.0" encoding="UTF-8"?>

<!-- generated on 2024-04-18 17:41:01.908282 by osmWebWizard.py v1_19_0+0000-baa66a0f364
<configuration>
    <net-file value="C:\Users\Jaime\Sumo\2024-04-18-17-37-51\osm.net.xml.gz"/>
    <output-trip-file value="C:\Users\Jaime\Sumo\2024-04-18-17-37-51\osm.passenger.trips.xml"/>
    <route-file value="C:\Users\Jaime\Sumo\2024-04-18-17-37-51\osm.passenger.rou.xml"/>
    <prefix value="veh"/>
    <trip-attributes value="departLane=&quot;best&quot;"/>
    <fringe-start-attributes value="departSpeed=&quot;max&quot;"/>
    <vehicle-class value="passenger"/>
    <lanes value="True"/>
    <fringe-factor value="5"/>
    <allow-fringe.min-length value="1000.0"/>
    <via-edge-types value="highway.motorway,highway.motorway_link,highway.trunk_link,highway.primary_link,highway.secondary_link,highway.tertiary_link"/>
    <min-distance value="300.0"/>
    <min-distance.fringe value="10.0"/>
    <remove-loops value="True"/>
    <validate value="True"/>
    <insertion-density value="12.0"/>
</configuration>
-->

<!-- generated on 2024-04-18 17:40:49 by Eclipse SUMO duarouter Version 1.19.0
<configuration xmlns:xsi="http://www.w3.org/2001/XMLSchema-instance" xsi:noNamespaceSchemaLocation="http://sumo.dlr.de/xsd/duarouterConfiguration.xsd">

    <input>
        <net-file value="C:\Users\Jaime\Sumo\2024-04-18-17-37-51\osm.net.xml.gz"/>
        <route-files value="C:\Users\Jaime\Sumo\2024-04-18-17-37-51\osm.passenger.trips.xml"/>
    </input>

    <output>
        <output-file value="C:\Users\Jaime\Sumo\2024-04-18-17-37-51\osm.passenger.trips.xml.tmp"/>
        <alternatives-output value="NUL"/>
        <write-trips value="true"/>
    </output>

    <processing>
        <remove-loops value="true"/>
    </processing>

    <time>
        <begin value="0.0"/>
        <end value="3600.0"/>
    </time>

    <report>
        <no-warnings value="true"/>
        <ignore-errors value="true"/>
        <no-step-log value="true"/>
    </report>

</configuration>
-->

<routes xmlns:xsi="http://www.w3.org/2001/XMLSchema-instance" xsi:noNamespaceSchemaLocation="http://sumo.dlr.de/xsd/routes_file.xsd">
    <vType id="veh_passenger" vClass="passenger"/>
    <trip id="veh0" type="veh_passenger" depart="0.00" departLane="best" from="450373525#5" to="293858828#0"/>
    <trip id="veh1" type="veh_passenger" depart="0.51" departLane="best" from="237521097#2" to="198597865#19"/>
    <trip id="veh2" type="veh_passenger" depart="1.02" departLane="best" from="493086069#0" to="4746923#5"/>
    <trip id="veh3" type="veh_passenger" depart="1.53" departLane="best" from="74060618#1" to="1103865932#1"/>
    <trip id="veh4" type="veh_passenger" depart="2.04" departLane="best" from="35159839#9" to="-301459436#1"/>
    <trip id="veh6" type="veh_passenger" depart="3.06" departLane="best" from="294082522#15" to="158967343#11"/>
    <trip id="veh7" type="veh_passenger" depart="3.57" departLane="best" from="454019112#8" to="34908912#7"/>
    <trip id="veh8" type="veh_passenger" depart="4.07" departLane="best" from="18616637#1" to="42615312#4"/>
    <trip id="veh9" type="veh_passenger" depart="4.58" departLane="best" from="546209922#8" to="-1235276476"/>
    <trip id="veh10" type="veh_passenger" depart="5.09" departLane="best" from="546148429#0" to="4776218#1"/>
    <trip id="veh11" type="veh_passenger" depart="5.60" departLane="best" from="237927190#10" to="123616984#4"/>
    <trip id="veh12" type="veh_passenger" depart="6.11" departLane="best" from="906140207#0" to="237914532#13"/>
    <trip id="veh13" type="veh_passenger" depart="6.62" departLane="best" from="1112040480#3" to="1112404133"/>
    <trip id="veh14" type="veh_passenger" depart="7.13" departLane="best" from="579970670#1" to="440740418#2"/>
    <trip id="veh15" type="veh_passenger" depart="7.64" departLane="best" from="546184104#0" to="490655488#0"/>
    <trip id="veh16" type="veh_passenger" depart="8.15" departLane="best" from="330913954#6" to="910018159#5"/>
    <trip id="veh17" type="veh_passenger" depart="8.66" departLane="best" from="243591204#1" to="35465939#11"/>
    <trip id="veh18" type="veh_passenger" depart="9.17" departLane="best" from="550732197#0" to="449991627#14"/>
    <trip id="veh19" type="veh_passenger" depart="9.68" departLane="best" from="649032009#1" to="41381595#1"/>
    <trip id="veh20" type="veh_passenger" depart="10.19" departLane="best" from="477894483#6" to="-4750220#0"/>
    <trip id="veh21" type="veh_passenger" depart="10.70" departLane="best" from="19916419#1" to="237566140#5"/>
    <trip id="veh22" type="veh_passenger" depart="11.20" departLane="best" from="1083818629#1" to="208568872#2"/>
    <trip id="veh23" type="veh_passenger" depart="11.71" departLane="best" from="1112801414#1" to="237522644#0"/>
    <trip id="veh24" type="veh_passenger" depart="12.22" departLane="best" from="450282540#3" to="238324885#10"/>
    <trip id="veh25" type="veh_passenger" depart="12.73" departLane="best" from="238866888#3" to="181849012#1"/>
    <trip id="veh26" type="veh_passenger" depart="13.24" departLane="best" from="237506939" to="881656434"/>
    <trip id="veh27" type="veh_passenger" depart="13.75" departLane="best" from="45185735#14" to="44868697#10"/>
    <trip id="veh28" type="veh_passenger" depart="14.26" departLane="best" from="1264827299#1" to="490655483#4"/>
    <trip id="veh29" type="veh_passenger" depart="14.77" departLane="best" from="1243743574#0" to="243093274#1"/>
    <trip id="veh30" type="veh_passenger" depart="15.28" departLane="best" from="970456887#2" to="450369490#1"/>
    <trip id="veh31" type="veh_passenger" depart="15.79" departLane="best" from="359739471#21" to="4750707#1"/>
    <trip id="veh32" type="veh_passenger" depart="16.30" departLane="best" from="570478919#0" to="542781427#3"/>
    <trip id="veh33" type="veh_passenger" depart="16.81" departLane="best" from="19918639#0" to="-308379374#1"/>
    <trip id="veh34" type="veh_passenger" depart="17.32" departLane="best" from="237787031#1" to="237506957#0"/>
    <trip id="veh35" type="veh_passenger" depart="17.83" departLane="best" from="1236121804#3" to="900167872#2"/>
    <trip id="veh36" type="veh_passenger" depart="18.33" departLane="best" from="671282474#2" to="237725958#3"/>
    <trip id="veh37" type="veh_passenger" depart="18.84" departLane="best" departSpeed="max" from="466765995#0" to="246640824#4"/>
    <trip id="veh38" type="veh_passenger" depart="19.35" departLane="best" from="8380812#0" to="294798016#16"/>
    <trip id="veh39" type="veh_passenger" depart="19.86" departLane="best" from="237506928#1" to="226319964#1"/>
    <trip id="veh40" type="veh_passenger" depart="20.37" departLane="best" from="359739476#1" to="236322684#1"/>
    <trip id="veh41" type="veh_passenger" depart="20.88" departLane="best" from="422533866#9" to="803424574#2"/>
    <trip id="veh42" type="veh_passenger" depart="21.39" departLane="best" from="248565671#0" to="18832345#0"/>
    <trip id="veh43" type="veh_passenger" depart="21.90" departLane="best" from="987520328#11" to="310929460#5"/>
    <trip id="veh44" type="veh_passenger" depart="22.41" departLane="best" from="1108418338#1" to="-4755055#0"/>
    <trip id="veh45" type="veh_passenger" depart="22.92" departLane="best" from="1117842676#2" to="449991643#2"/>
    <trip id="veh46" type="veh_passenger" depart="23.43" departLane="best" from="544243187" to="268565422#2"/>
    <trip id="veh47" type="veh_passenger" depart="23.94" departLane="best" departSpeed="max" from="-918466819" to="243591204#5"/>
    <trip id="veh48" type="veh_passenger" depart="24.45" departLane="best" from="98002400#8" to="32065149#4"/>
    <trip id="veh49" type="veh_passenger" depart="24.96" departLane="best" from="908570510#2" to="650072289#7"/>
    <trip id="veh50" type="veh_passenger" depart="25.47" departLane="best" from="182069872#5" to="483469781#1"/>
    <trip id="veh51" type="veh_passenger" depart="25.97" departLane="best" from="4750183#10" to="330913954#6"/>
    <trip id="veh52" type="veh_passenger" depart="26.48" departLane="best" from="237506936#1" to="450396236#1"/>
    <trip id="veh53" type="veh_passenger" depart="26.99" departLane="best" from="11299615#4" to="287522296#0"/>
    <trip id="veh54" type="veh_passenger" depart="27.50" departLane="best" from="294085157#22" to="905209183#8"/>
    <trip id="veh55" type="veh_passenger" depart="28.01" departLane="best" from="669719140#0" to="237506925#0"/>
    <trip id="veh56" type="veh_passenger" depart="28.52" departLane="best" from="308861420#0" to="-129169443"/>
    <trip id="veh57" type="veh_passenger" depart="29.03" departLane="best" from="831255356#0" to="664809101"/>
    <trip id="veh58" type="veh_passenger" depart="29.54" departLane="best" from="237652080#1" to="450369486#6"/>
    <trip id="veh59" type="veh_passenger" depart="30.05" departLane="best" from="448563711" to="1235264094#0"/>
    <trip id="veh60" type="veh_passenger" depart="30.56" departLane="best" from="532696011#1" to="340350446#2"/>
    <trip id="veh61" type="veh_passenger" depart="31.07" departLane="best" from="542781427#3" to="32429563#1"/>
    <trip id="veh62" type="veh_passenger" depart="31.58" departLane="best" departSpeed="max" from="1079083285#5" to="237795736#8"/>
    <trip id="veh63" type="veh_passenger" depart="32.09" departLane="best" from="24793733#1" to="87031380"/>
    <trip id="veh64" type="veh_passenger" depart="32.60" departLane="best" from="673080424" to="553586755#1"/>
    <trip id="veh65" type="veh_passenger" depart="33.10" departLane="best" from="237667614#14" to="-550732197#1"/>
    <trip id="veh66" type="veh_passenger" depart="33.61" departLane="best" from="673080415#28" to="-902644121#1"/>
    <trip id="veh67" type="veh_passenger" depart="34.12" departLane="best" from="1094457471#0" to="308354708#0"/>
    <trip id="veh68" type="veh_passenger" depart="34.63" departLane="best" from="540281991" to="532696001#1"/>
    <trip id="veh69" type="veh_passenger" depart="35.14" departLane="best" departSpeed="max" from="30014790#0" to="35172817#1"/>
    <trip id="veh70" type="veh_passenger" depart="35.65" departLane="best" from="237506928#4" to="669686363#7"/>
    <trip id="veh71" type="veh_passenger" depart="36.16" departLane="best" from="272639447#1" to="182069873#0"/>
    <trip id="veh72" type="veh_passenger" depart="36.67" departLane="best" from="34054325#12" to="-182069872#0"/>
    <trip id="veh73" type="veh_passenger" depart="37.18" departLane="best" from="158967343#8" to="237725937#14"/>
    <trip id="veh74" type="veh_passenger" depart="37.69" departLane="best" from="98002400#0" to="454019112#11"/>
    <trip id="veh75" type="veh_passenger" depart="38.20" departLane="best" from="-287670535" to="313379199#0"/>
    <trip id="veh76" type="veh_passenger" depart="38.71" departLane="best" from="116315056#0" to="198597878#10"/>
    <trip id="veh77" type="veh_passenger" depart="39.22" departLane="best" from="237923123#9" to="42520943#2"/>
    <trip id="veh78" type="veh_passenger" depart="39.73" departLane="best" from="20042722#1" to="18968219#1"/>
    <trip id="veh79" type="veh_passenger" depart="40.23" departLane="best" from="103348976#1" to="450137746#1"/>
    <trip id="veh80" type="veh_passenger" depart="40.74" departLane="best" from="19918552#2" to="831157582#0"/>
    <trip id="veh81" type="veh_passenger" depart="41.25" departLane="best" from="620654338#0" to="103348976#2"/>
    <trip id="veh82" type="veh_passenger" depart="41.76" departLane="best" from="214272929#8" to="4745526#3"/>
    <trip id="veh83" type="veh_passenger" depart="42.27" departLane="best" from="182069873#3" to="1207893833#1"/>
    <trip id="veh84" type="veh_passenger" depart="42.78" departLane="best" from="295281481#2" to="544164280#1"/>
    <trip id="veh85" type="veh_passenger" depart="43.29" departLane="best" from="546184105#0" to="140001510#5"/>
    <trip id="veh86" type="veh_passenger" depart="43.80" departLane="best" from="1112404129#1" to="284142074#2"/>
    <trip id="veh87" type="veh_passenger" depart="44.31" departLane="best" from="272639450#1" to="295263585#3"/>
    <trip id="veh88" type="veh_passenger" depart="44.82" departLane="best" from="490631542#1" to="4746243#11"/>
    <trip id="veh89" type="veh_passenger" depart="45.33" departLane="best" from="9412955#2" to="1112801410#4"/>
    <trip id="veh90" type="veh_passenger" depart="45.84" departLane="best" from="250677328#2" to="237923125#0"/>
    <trip id="veh91" type="veh_passenger" depart="46.35" departLane="best" from="649032009#1" to="226319972#9"/>
    <trip id="veh92" type="veh_passenger" depart="46.86" departLane="best" from="13724827#0" to="294085157#0"/>
    <trip id="veh93" type="veh_passenger" depart="47.37" departLane="best" from="268565421" to="237525159#0"/>
    <trip id="veh95" type="veh_passenger" depart="48.38" departLane="best" from="293858814#4" to="65143745#0"/>
    <trip id="veh96" type="veh_passenger" depart="48.89" departLane="best" departSpeed="max" from="352987332#0" to="-524963566#3"/>
    <trip id="veh97" type="veh_passenger" depart="49.40" departLane="best" from="9980761#1" to="556049572#4"/>
    <trip id="veh98" type="veh_passenger" depart="49.91" departLane="best" from="908375893#3" to="868707435#1"/>
    <trip id="veh99" type="veh_passenger" depart="50.42" departLane="best" from="579981378#2" to="1264825130"/>
    <trip id="veh100" type="veh_passenger" depart="50.93" departLane="best" from="308159955#0" to="18504649#7"/>
    <trip id="veh101" type="veh_passenger" depart="51.44" departLane="best" from="248565673#1" to="542843797#1"/>
    <trip id="veh102" type="veh_passenger" depart="51.95" departLane="best" from="243591204#12" to="9412963#3"/>
    <trip id="veh103" type="veh_passenger" depart="52.46" departLane="best" from="237506929#1" to="544113526#0"/>
    <trip id="veh104" type="veh_passenger" depart="52.97" departLane="best" from="294085157#27" to="271470038#2"/>
    <trip id="veh105" type="veh_passenger" depart="53.48" departLane="best" from="906391078#1" to="98002400#2"/>
    <trip id="veh106" type="veh_passenger" depart="53.99" departLane="best" from="359735826#6" to="483469230#5"/>
    <trip id="veh107" type="veh_passenger" depart="54.50" departLane="best" from="1236121804#0" to="284450142#1"/>
    <trip id="veh108" type="veh_passenger" depart="55.00" departLane="best" from="908375892" to="41643018#1"/>
    <trip id="veh109" type="veh_passenger" depart="55.51" departLane="best" from="34609520#3" to="525638416#3"/>
    <trip id="veh110" type="veh_passenger" depart="56.02" departLane="best" from="680884121#0" to="422439069#1"/>
    <trip id="veh111" type="veh_passenger" depart="56.53" departLane="best" from="309055988#2" to="601634007#9"/>
    <trip id="veh112" type="veh_passenger" depart="57.04" departLane="best" from="123621924#1" to="908143807#0"/>
    <trip id="veh113" type="veh_passenger" depart="57.55" departLane="best" from="1083818629#2" to="136725370#3"/>
    <trip id="veh114" type="veh_passenger" depart="58.06" departLane="best" from="43037120#1" to="4746907#1"/>
    <trip id="veh115" type="veh_passenger" depart="58.57" departLane="best" from="208606448#2" to="116315093#2"/>
    <trip id="veh116" type="veh_passenger" depart="59.08" departLane="best" from="730337227#2" to="226319963#1"/>
    <trip id="veh117" type="veh_passenger" depart="59.59" departLane="best" from="43037119#3" to="449991627#6"/>
    <trip id="veh118" type="veh_passenger" depart="60.10" departLane="best" departSpeed="max" from="263405142#0" to="422439067#6"/>
    <trip id="veh119" type="veh_passenger" depart="60.61" departLane="best" from="316582574#0" to="880513895#9"/>
    <trip id="veh120" type="veh_passenger" depart="61.12" departLane="best" from="168832555#4" to="4813536#2"/>
    <trip id="veh121" type="veh_passenger" depart="61.63" departLane="best" departSpeed="max" from="216972169" to="246640824#5"/>
    <trip id="veh122" type="veh_passenger" depart="62.13" departLane="best" from="4745969#2" to="237655878#0"/>
    <trip id="veh124" type="veh_passenger" depart="63.15" departLane="best" from="1042655980#3" to="294798015#0"/>
    <trip id="veh125" type="veh_passenger" depart="63.66" departLane="best" from="987520328#3" to="98002400#8"/>
    <trip id="veh126" type="veh_passenger" depart="64.17" departLane="best" from="1043669615" to="182069876#1-AddedOnRampEdge"/>
    <trip id="veh127" type="veh_passenger" depart="64.68" departLane="best" from="237506929#1" to="879204519"/>
    <trip id="veh128" type="veh_passenger" depart="65.19" departLane="best" from="678894147#0" to="68506238#2"/>
    <trip id="veh129" type="veh_passenger" depart="65.70" departLane="best" from="238866888#0" to="12373020#5"/>
    <trip id="veh130" type="veh_passenger" depart="66.21" departLane="best" from="552422735#2" to="477894483#2"/>
    <trip id="veh131" type="veh_passenger" depart="66.72" departLane="best" from="449991616#10" to="95427352#2"/>
    <trip id="veh132" type="veh_passenger" depart="67.23" departLane="best" departSpeed="max" from="466765994#0" to="-1272335037"/>
    <trip id="veh133" type="veh_passenger" depart="67.74" departLane="best" from="547297203#1" to="237655873#4"/>
    <trip id="veh134" type="veh_passenger" depart="68.25" departLane="best" from="4744944#2" to="887682494#1"/>
    <trip id="veh135" type="veh_passenger" depart="68.76" departLane="best" from="1207893834#1" to="1157644016#0"/>
    <trip id="veh136" type="veh_passenger" depart="69.27" departLane="best" from="1112886314" to="35466212#2"/>
    <trip id="veh137" type="veh_passenger" depart="69.77" departLane="best" from="237519392#3" to="440740425#1"/>
    <trip id="veh138" type="veh_passenger" depart="70.28" departLane="best" from="483469230#0" to="170237548#1"/>
    <trip id="veh139" type="veh_passenger" depart="70.79" departLane="best" from="450145580#2" to="237506925#5"/>
    <trip id="veh140" type="veh_passenger" depart="71.30" departLane="best" from="308354709#2" to="831157580#0"/>
    <trip id="veh141" type="veh_passenger" depart="71.81" departLane="best" from="571448019#3" to="1112399032#2"/>
    <trip id="veh142" type="veh_passenger" depart="72.32" departLane="best" from="272639450#1" to="237522639#1"/>
    <trip id="veh143" type="veh_passenger" depart="72.83" departLane="best" departSpeed="max" from="-1191414433#1" to="542169706#0"/>
    <trip id="veh144" type="veh_passenger" depart="73.34" departLane="best" from="450369486#15" to="23433074#1"/>
    <trip id="veh145" type="veh_passenger" depart="73.85" departLane="best" from="511211614#0" to="35361628#1"/>
    <trip id="veh146" type="veh_passenger" depart="74.36" departLane="best" from="274322569#18" to="-139259333#1"/>
    <trip id="veh147" type="veh_passenger" depart="74.87" departLane="best" from="1065494396#1" to="68506257#1"/>
    <trip id="veh148" type="veh_passenger" depart="75.38" departLane="best" from="803424599#1" to="35066571#5"/>
    <trip id="veh149" type="veh_passenger" depart="75.89" departLane="best" from="553309957#0" to="417596337#40"/>
    <trip id="veh150" type="veh_passenger" depart="76.40" departLane="best" from="1227159939#1" to="1186709318#3"/>
    <trip id="veh151" type="veh_passenger" depart="76.90" departLane="best" from="237667620#2" to="803424580#1"/>
    <trip id="veh152" type="veh_passenger" depart="77.41" departLane="best" from="544641228#2" to="650072289#6"/>
    <trip id="veh153" type="veh_passenger" depart="77.92" departLane="best" from="790634173#3" to="182069869#0"/>
    <trip id="veh154" type="veh_passenger" depart="78.43" departLane="best" from="226319974#1" to="1112883662"/>
    <trip id="veh155" type="veh_passenger" depart="78.94" departLane="best" from="542841016#2" to="68506263#0"/>
    <trip id="veh156" type="veh_passenger" depart="79.45" departLane="best" departSpeed="max" from="251684604#0" to="449991628#6"/>
    <trip id="veh157" type="veh_passenger" depart="79.96" departLane="best" from="123533087#0" to="879179147#1"/>
    <trip id="veh158" type="veh_passenger" depart="80.47" departLane="best" from="651533775#0" to="918393595"/>
    <trip id="veh159" type="veh_passenger" depart="80.98" departLane="best" from="546578349#7" to="68506253#2"/>
    <trip id="veh160" type="veh_passenger" depart="81.49" departLane="best" from="-293858828#0" to="493086069#4"/>
    <trip id="veh161" type="veh_passenger" depart="82.00" departLane="best" from="545718433#2" to="651533778#4"/>
    <trip id="veh162" type="veh_passenger" depart="82.51" departLane="best" from="546578349#7" to="237506936#1"/>
    <trip id="veh163" type="veh_passenger" depart="83.02" departLane="best" from="35157140#4" to="1117842676#2"/>
    <trip id="veh164" type="veh_passenger" depart="83.53" departLane="best" from="661390764#3" to="645915432#0"/>
    <trip id="veh165" type="veh_passenger" depart="84.03" departLane="best" from="18833661#0" to="549749264#1"/>
    <trip id="veh166" type="veh_passenger" depart="84.54" departLane="best" from="294798015#1" to="237659853#6"/>
    <trip id="veh168" type="veh_passenger" depart="85.56" departLane="best" from="-287670533#2" to="145565048#10"/>
    <trip id="veh169" type="veh_passenger" depart="86.07" departLane="best" from="908375883#1" to="237525159#3"/>
    <trip id="veh170" type="veh_passenger" depart="86.58" departLane="best" from="450435860#1" to="24793515#6"/>
    <trip id="veh171" type="veh_passenger" depart="87.09" departLane="best" from="925546470#1" to="330913952#7"/>
    <trip id="veh172" type="veh_passenger" depart="87.60" departLane="best" from="882902027#2" to="1157644015"/>
    <trip id="veh173" type="veh_passenger" depart="88.11" departLane="best" from="908550631#1" to="-129169443"/>
    <trip id="veh174" type="veh_passenger" depart="88.62" departLane="best" from="908375872#0" to="237506930#0"/>
    <trip id="veh175" type="veh_passenger" depart="89.13" departLane="best" from="1112888175" to="285759144#2"/>
    <trip id="veh176" type="veh_passenger" depart="89.64" departLane="best" from="243591203#4" to="237725943#1"/>
    <trip id="veh178" type="veh_passenger" depart="90.66" departLane="best" from="243716769#2" to="4079520#2"/>
    <trip id="veh179" type="veh_passenger" depart="91.17" departLane="best" from="22689284#9" to="478705995#6"/>
    <trip id="veh180" type="veh_passenger" depart="91.67" departLane="best" departSpeed="max" from="-1105864482#2" to="86772200#3"/>
    <trip id="veh182" type="veh_passenger" depart="92.69" departLane="best" from="511211618#2" to="4745969#11"/>
    <trip id="veh183" type="veh_passenger" depart="93.20" departLane="best" from="238324885#8" to="103348969#2"/>
    <trip id="veh185" type="veh_passenger" depart="94.22" departLane="best" from="237725962#0" to="591631503#1"/>
    <trip id="veh186" type="veh_passenger" depart="94.73" departLane="best" from="483469232#1" to="237655878#2"/>
    <trip id="veh187" type="veh_passenger" depart="95.24" departLane="best" from="237715987#1" to="251682771#0"/>
    <trip id="veh188" type="veh_passenger" depart="95.75" departLane="best" from="250665597" to="237645189#3"/>
    <trip id="veh189" type="veh_passenger" depart="96.26" departLane="best" from="887682494#1" to="4746924#2"/>
    <trip id="veh190" type="veh_passenger" depart="96.77" departLane="best" from="803424596#3" to="449991621#1"/>
    <trip id="veh191" type="veh_passenger" depart="97.28" departLane="best" from="237659845#1" to="35159839#2"/>
    <trip id="veh192" type="veh_passenger" depart="97.79" departLane="best" from="1079083285#2" to="237555363#5"/>
    <trip id="veh193" type="veh_passenger" depart="98.30" departLane="best" from="281056199#2" to="416692901#1"/>
    <trip id="veh194" type="veh_passenger" depart="98.80" departLane="best" departSpeed="max" from="466765994#0" to="295215799#4"/>
    <trip id="veh195" type="veh_passenger" depart="99.31" departLane="best" departSpeed="max" from="292300527#0" to="18504649#7"/>
    <trip id="veh196" type="veh_passenger" depart="99.82" departLane="best" from="295288870#0" to="803424599#4"/>
    <trip id="veh197" type="veh_passenger" depart="100.33" departLane="best" from="544641228#2" to="1264827308#0"/>
    <trip id="veh198" type="veh_passenger" depart="100.84" departLane="best" from="1094454894#1" to="313379187#4"/>
    <trip id="veh199" type="veh_passenger" depart="101.35" departLane="best" from="450145197#4" to="237914526#2"/>
    <trip id="veh200" type="veh_passenger" depart="101.86" departLane="best" from="549538006#2" to="526213090#2"/>
    <trip id="veh201" type="veh_passenger" depart="102.37" departLane="best" from="4745980#4" to="709075302#0"/>
    <trip id="veh202" type="veh_passenger" depart="102.88" departLane="best" from="173223706#1" to="-289979605#0"/>
    <trip id="veh203" type="veh_passenger" depart="103.39" departLane="best" from="226319537#2" to="37133245#1"/>
    <trip id="veh204" type="veh_passenger" depart="103.90" departLane="best" from="579981380#1" to="1047438433#0"/>
    <trip id="veh205" type="veh_passenger" depart="104.41" departLane="best" from="263018090#2" to="450137744#1"/>
    <trip id="veh206" type="veh_passenger" depart="104.92" departLane="best" from="145565048#10" to="4755005#14"/>
    <trip id="veh207" type="veh_passenger" depart="105.43" departLane="best" from="308355199#25" to="226319534#3"/>
    <trip id="veh208" type="veh_passenger" depart="105.93" departLane="best" from="466765995#8" to="-122475983"/>
    <trip id="veh209" type="veh_passenger" depart="106.44" departLane="best" from="526132001#2" to="541711522#0"/>
    <trip id="veh210" type="veh_passenger" depart="106.95" departLane="best" from="1112886312#1" to="272639450#6"/>
    <trip id="veh211" type="veh_passenger" depart="107.46" departLane="best" from="1264832643#1" to="906505544#0"/>
    <trip id="veh212" type="veh_passenger" depart="107.97" departLane="best" from="313395786#2" to="524963566#1"/>
    <trip id="veh213" type="veh_passenger" depart="108.48" departLane="best" from="226319972#9" to="591631503#3"/>
    <trip id="veh214" type="veh_passenger" depart="108.99" departLane="best" from="294085157#8" to="546148432#5"/>
    <trip id="veh215" type="veh_passenger" depart="109.50" departLane="best" from="-4745025#4" to="954821568#3"/>
    <trip id="veh216" type="veh_passenger" depart="110.01" departLane="best" departSpeed="max" from="43037125#0" to="903025862#1"/>
    <trip id="veh217" type="veh_passenger" depart="110.52" departLane="best" from="732998300#5" to="449991616#2"/>
    <trip id="veh218" type="veh_passenger" depart="111.03" departLane="best" from="483469231#3" to="309246587#3"/>
    <trip id="veh219" type="veh_passenger" depart="111.54" departLane="best" from="550732200#0" to="35159839#13"/>
    <trip id="veh220" type="veh_passenger" depart="112.05" departLane="best" from="77477553#2" to="519375850#1"/>
    <trip id="veh221" type="veh_passenger" depart="112.56" departLane="best" from="296827111#5" to="23191709#1"/>
    <trip id="veh222" type="veh_passenger" depart="113.07" departLane="best" from="226319964#2" to="450282686#0"/>
    <trip id="veh223" type="veh_passenger" depart="113.57" departLane="best" from="536376972#1" to="315268999"/>
    <trip id="veh224" type="veh_passenger" depart="114.08" departLane="best" from="449991643#0" to="237521097#0"/>
    <trip id="veh225" type="veh_passenger" depart="114.59" departLane="best" departSpeed="max" from="1079083285#0" to="237549913#1"/>
    <trip id="veh226" type="veh_passenger" depart="115.10" departLane="best" from="237519391#0" to="237790227#1"/>
    <trip id="veh227" type="veh_passenger" depart="115.61" departLane="best" from="34054325#27" to="1219063120"/>
    <trip id="veh228" type="veh_passenger" depart="116.12" departLane="best" from="20475367#0" to="4754981#23"/>
    <trip id="veh229" type="veh_passenger" depart="116.63" departLane="best" departSpeed="max" from="4783527#0" to="1000038393"/>
    <trip id="veh230" type="veh_passenger" depart="117.14" departLane="best" from="251684604#7" to="-309246588#0"/>
    <trip id="veh231" type="veh_passenger" depart="117.65" departLane="best" departSpeed="max" from="263405133#0" to="175002102#3"/>
    <trip id="veh232" type="veh_passenger" depart="118.16" departLane="best" from="263405142#33" to="830027504#0"/>
    <trip id="veh233" type="veh_passenger" depart="118.67" departLane="best" from="422439069#9" to="4754981#22"/>
    <trip id="veh234" type="veh_passenger" depart="119.18" departLane="best" from="601634007#4" to="538185605#2"/>
    <trip id="veh236" type="veh_passenger" depart="120.20" departLane="best" departSpeed="max" from="263405142#0" to="525638414#4"/>
    <trip id="veh237" type="veh_passenger" depart="120.70" departLane="best" from="35067067#11" to="440732039#1"/>
    <trip id="veh238" type="veh_passenger" depart="121.21" departLane="best" from="4743368#1" to="18833021#1"/>
    <trip id="veh239" type="veh_passenger" depart="121.72" departLane="best" from="287522297#1" to="301443370#0"/>
    <trip id="veh240" type="veh_passenger" depart="122.23" departLane="best" from="237914537#4" to="4750163#14"/>
    <trip id="veh241" type="veh_passenger" depart="122.74" departLane="best" from="251551138#1" to="126301389"/>
    <trip id="veh242" type="veh_passenger" depart="123.25" departLane="best" from="295215803#7" to="1189684047#2"/>
    <trip id="veh243" type="veh_passenger" depart="123.76" departLane="best" from="449991632#1" to="-294082522#8"/>
    <trip id="veh244" type="veh_passenger" depart="124.27" departLane="best" from="246642909#0" to="37103026#2"/>
    <trip id="veh245" type="veh_passenger" depart="124.78" departLane="best" from="-294085186#0" to="450581320#1"/>
    <trip id="veh246" type="veh_passenger" depart="125.29" departLane="best" from="1213959258#2" to="295124095#0"/>
    <trip id="veh247" type="veh_passenger" depart="125.80" departLane="best" from="-540501371#0" to="243093273#2"/>
    <trip id="veh248" type="veh_passenger" depart="126.31" departLane="best" from="181849012#3" to="237805225#0"/>
    <trip id="veh249" type="veh_passenger" depart="126.82" departLane="best" from="532570624#2" to="243093273#3"/>