<?xml version="1.0" encoding="UTF-8"?>

<!-- generated on 2024-07-01 21:01:38 by Eclipse SUMO netconvert Version 1.19.0
<configuration xmlns:xsi="http://www.w3.org/2001/XMLSchema-instance" xsi:noNamespaceSchemaLocation="http://sumo.dlr.de/xsd/netconvertConfiguration.xsd">

    <input>
        <type-files value="${SUMO_HOME}/data/typemap/osmNetconvert.typ.xml,${SUMO_HOME}/data/typemap/osmNetconvertAerialway.typ.xml"/>
        <osm-files value="osm_bbox.osm.xml.gz"/>
    </input>

    <output>
        <output-file value="osm.net.xml.gz"/>
        <output.street-names value="true"/>
        <output.original-names value="true"/>
        <ptstop-output value="osm_stops.add.xml"/>
        <ptline-output value="osm_ptlines.xml"/>
    </output>

    <projection>
        <proj.utm value="true"/>
    </projection>

    <processing>
        <geometry.remove value="true"/>
        <roundabouts.guess value="true"/>
    </processing>

    <tls_building>
        <tls.discard-simple value="true"/>
        <tls.join value="true"/>
        <tls.guess-signals value="true"/>
        <tls.default-type value="actuated"/>
    </tls_building>

    <ramp_guessing>
        <ramps.guess value="true"/>
    </ramp_guessing>

    <junctions>
        <junctions.join value="true"/>
        <junctions.corner-detail value="5"/>
    </junctions>

    <railway>
        <railway.topology.repair value="true"/>
    </railway>

</configuration>
-->

<additional xmlns:xsi="http://www.w3.org/2001/XMLSchema-instance" xsi:noNamespaceSchemaLocation="http://sumo.dlr.de/xsd/additional_file.xsd">
    <busStop id="-30317892" name="Port Vell" lane="-4752296#4_0" startPos="18.64" endPos="33.64" friendlyPos="true" lines="V17"/>
    <busStop id="-3673333976" name="Plaça de Catalunya (FGC)" lane="-867668763_0" startPos="0.00" endPos="100.53" friendlyPos="true">
        <access lane="1108368268_0" pos="53.27" length="18.49" friendlyPos="1"/>
        <access lane="1217899981_0" pos="11.45" length="57.09" friendlyPos="1"/>
        <access lane="1217899987_0" pos="14.79" length="55.57" friendlyPos="1"/>
        <access lane="882273556#1_0" pos="77.75" length="9.40" friendlyPos="1"/>
        <access lane="886348384#0_0" pos="58.09" length="20.93" friendlyPos="1"/>
    </busStop>
    <busStop id="-3673333977" name="Plaça de Catalunya (FGC)" lane="-867668758_0" startPos="0.00" endPos="101.06" friendlyPos="true">
        <access lane="1108368268_0" pos="53.41" length="31.24" friendlyPos="1"/>
        <access lane="1217899981_0" pos="11.45" length="52.79" friendlyPos="1"/>
        <access lane="1217899985_0" pos="14.43" length="55.69" friendlyPos="1"/>
        <access lane="882273556#1_0" pos="77.59" length="3.34" friendlyPos="1"/>
        <access lane="886348384#0_0" pos="57.92" length="33.68" friendlyPos="1"/>
    </busStop>
    <busStop id="-5760480311" name="Pg. de Gràcia - Ronda de Sant Pere" lane="-126301387#1_0" startPos="27.35" endPos="42.35" friendlyPos="true" lines="19"/>
    <busStop id="-7215417855" name="Barcelona - Estació de França" lane="-293888968_0" startPos="219.66" endPos="419.66" friendlyPos="true">
        <access lane="772812629_0" pos="0.00" length="6.96" friendlyPos="1"/>
        <access lane="772812630#1_0" pos="1.27" length="10.90" friendlyPos="1"/>
        <access lane="772812639_0" pos="4.76" length="14.06" friendlyPos="1"/>
        <access lane="772812640_0" pos="7.46" length="7.25" friendlyPos="1"/>
        <access lane="772812644#6_0" pos="6.75" length="11.18" friendlyPos="1"/>
    </busStop>
    <busStop id="-7215417856" name="Barcelona - Estació de França" lane="-216952584_0" startPos="48.02" endPos="248.02" friendlyPos="true">
        <access lane="772812630#0_0" pos="0.00" length="6.88" friendlyPos="1"/>
        <access lane="772812631#1_0" pos="1.36" length="11.05" friendlyPos="1"/>
        <access lane="772812639_0" pos="5.10" length="7.72" friendlyPos="1"/>
        <access lane="772812644#4_0" pos="2.95" length="12.94" friendlyPos="1"/>
        <access lane="772812644#5_0" pos="0.00" length="11.34" friendlyPos="1"/>
    </busStop>
    <busStop id="-7215417857" name="Barcelona - Estació de França" lane="-216952561_0" startPos="0.00" endPos="200.00" friendlyPos="true">
        <access lane="772812629_0" pos="0.00" length="10.79" friendlyPos="1"/>
        <access lane="772812630#0_0" pos="1.61" length="12.83" friendlyPos="1"/>
        <access lane="772812630#1_0" pos="1.27" length="6.85" friendlyPos="1"/>
        <access lane="772812639_0" pos="4.93" length="7.09" friendlyPos="1"/>
        <access lane="772812644#6_0" pos="2.10" length="11.31" friendlyPos="1"/>
    </busStop>
    <busStop id="-7215417877" name="Barcelona - Estació de França" lane="-217122023_0" startPos="0.00" endPos="200.00" friendlyPos="true">
        <access lane="772812630#0_0" pos="0.00" length="11.01" friendlyPos="1"/>
        <access lane="772812631#0_0" pos="1.65" length="12.98" friendlyPos="1"/>
        <access lane="772812631#1_0" pos="1.36" length="6.92" friendlyPos="1"/>
        <access lane="772812638_0" pos="2.02" length="7.31" friendlyPos="1"/>
        <access lane="772812644#4_0" pos="2.36" length="11.26" friendlyPos="1"/>
    </busStop>
    <busStop id="-7215418511" name="Barcelona - Estació de França" lane="-216952537_0" startPos="215.17" endPos="415.17" friendlyPos="true">
        <access lane="772812631#0_0" pos="0.00" length="6.89" friendlyPos="1"/>
        <access lane="772812631#1_0" pos="0.00" length="13.27" friendlyPos="1"/>
        <access lane="772812632#1_0" pos="1.44" length="11.49" friendlyPos="1"/>
        <access lane="772812638_0" pos="1.96" length="7.71" friendlyPos="1"/>
        <access lane="772812644#3_0" pos="7.55" length="11.32" friendlyPos="1"/>
    </busStop>
    <busStop id="-7215418512" name="Barcelona - Estació de França" lane="-216952562_0" startPos="27.60" endPos="227.60" friendlyPos="true">
        <access lane="772812631#0_0" pos="0.00" length="11.13" friendlyPos="1"/>
        <access lane="772812632#0_0" pos="1.04" length="13.35" friendlyPos="1"/>
        <access lane="772812632#1_0" pos="1.44" length="6.97" friendlyPos="1"/>
        <access lane="772812637_0" pos="2.03" length="7.72" friendlyPos="1"/>
        <access lane="772812644#3_0" pos="2.60" length="11.38" friendlyPos="1"/>
    </busStop>
    <busStop id="-7215418513" name="Barcelona - Estació de França" lane="-217122028_0" startPos="0.00" endPos="186.14" friendlyPos="true">
        <access lane="772812632#0_0" pos="0.00" length="6.90" friendlyPos="1"/>
        <access lane="772812632#1_0" pos="0.00" length="12.53" friendlyPos="1"/>
        <access lane="772812633#1_0" pos="1.17" length="11.30" friendlyPos="1"/>
        <access lane="772812637_0" pos="1.91" length="6.89" friendlyPos="1"/>
        <access lane="772812644#2_0" pos="7.33" length="11.32" friendlyPos="1"/>
    </busStop>
    <busStop id="-7215418534" name="Barcelona - Estació de França" lane="-217122029_0" startPos="0.00" endPos="185.36" friendlyPos="true">
        <access lane="772812632#0_0" pos="0.00" length="11.17" friendlyPos="1"/>
        <access lane="772812633#0_0" pos="1.62" length="12.85" friendlyPos="1"/>
        <access lane="772812633#1_0" pos="1.17" length="6.95" friendlyPos="1"/>
        <access lane="772812636_0" pos="1.99" length="7.19" friendlyPos="1"/>
        <access lane="772812644#2_0" pos="2.40" length="11.33" friendlyPos="1"/>
    </busStop>
    <busStop id="-7215418535" name="Barcelona - Estació de França" lane="-217122032_0" startPos="0.00" endPos="183.90" friendlyPos="true">
        <access lane="772812633#0_0" pos="0.00" length="6.90" friendlyPos="1"/>
        <access lane="772812633#1_0" pos="0.00" length="13.26" friendlyPos="1"/>
        <access lane="772812636_0" pos="2.00" length="7.67" friendlyPos="1"/>
        <access lane="772812641#1_0" pos="1.46" length="11.03" friendlyPos="1"/>
        <access lane="772812644#1_0" pos="7.12" length="11.34" friendlyPos="1"/>
    </busStop>
    <busStop id="-7215418554" name="Barcelona - Estació de França" lane="-217122030_0" startPos="0.00" endPos="183.14" friendlyPos="true">
        <access lane="772812633#0_0" pos="0.00" length="11.10" friendlyPos="1"/>
        <access lane="772812635_0" pos="2.08" length="7.27" friendlyPos="1"/>
        <access lane="772812641#0_0" pos="1.44" length="13.01" friendlyPos="1"/>
        <access lane="772812641#1_0" pos="1.46" length="6.92" friendlyPos="1"/>
        <access lane="772812644#1_0" pos="2.25" length="11.32" friendlyPos="1"/>
    </busStop>
    <busStop id="-7215418555" name="Barcelona - Estació de França" lane="-216952539_0" startPos="0.00" endPos="38.47" friendlyPos="true">
        <access lane="23433049#0_0" pos="485.60" length="87.42" friendlyPos="1"/>
        <access lane="772812634_0" pos="0.00" length="28.21" friendlyPos="1"/>
        <access lane="790872149#0_0" pos="625.91" length="93.69" friendlyPos="1"/>
        <access lane="881322885#0_0" pos="507.49" length="124.30" friendlyPos="1"/>
        <access lane="9412954#2_0" pos="89.62" length="74.44" friendlyPos="1"/>
    </busStop>
    <busStop id="-7215418556" name="Barcelona - Estació de França" lane="-217122031_0" startPos="0.00" endPos="181.95" friendlyPos="true">
        <access lane="772812634_0" pos="195.71" length="11.32" friendlyPos="1"/>
        <access lane="772812635_0" pos="1.94" length="7.41" friendlyPos="1"/>
        <access lane="772812641#0_0" pos="0.00" length="6.94" friendlyPos="1"/>
        <access lane="772812641#1_0" pos="0.00" length="12.99" friendlyPos="1"/>
        <access lane="772812644#1_0" pos="0.00" length="15.99" friendlyPos="1"/>
    </busStop>
    <busStop id="-7215418557" name="Barcelona - Estació de França" lane="-217122021_0" startPos="0.00" endPos="181.42" friendlyPos="true">
        <access lane="772812634_0" pos="180.35" length="3.88" friendlyPos="1"/>
        <access lane="772812635_0" pos="1.83" length="15.47" friendlyPos="1"/>
        <access lane="772812641#0_0" pos="0.00" length="11.64" friendlyPos="1"/>
        <access lane="772812641#1_0" pos="0.00" length="20.30" friendlyPos="1"/>
        <access lane="772812644#1_0" pos="0.00" length="22.45" friendlyPos="1"/>
    </busStop>
    <busStop id="-8087619814" name="Plaça de Catalunya (FGC)" lane="-866397102#0_0" startPos="0.00" endPos="57.53" friendlyPos="true">
        <access lane="11680392#1_0" pos="61.33" length="49.20" friendlyPos="1"/>
        <access lane="1217899982_0" pos="11.39" length="54.46" friendlyPos="1"/>
        <access lane="1217899989_0" pos="0.00" length="43.71" friendlyPos="1"/>
        <access lane="882273556#1_0" pos="79.22" length="33.93" friendlyPos="1"/>
        <access lane="882273559#0_0" pos="62.32" length="39.14" friendlyPos="1"/>
    </busStop>
    <busStop id="-8087619815" name="Plaça de Catalunya (FGC)" lane="-866397101_0" startPos="0.00" endPos="103.46" friendlyPos="true">
        <access lane="1108368268_0" pos="51.40" length="49.30" friendlyPos="1"/>
        <access lane="1217899989_0" pos="0.00" length="46.35" friendlyPos="1"/>
        <access lane="882273556#1_0" pos="79.56" length="21.41" friendlyPos="1"/>
        <access lane="882273559#0_0" pos="57.54" length="49.42" friendlyPos="1"/>
        <access lane="886348384#0_0" pos="59.89" length="51.75" friendlyPos="1"/>
    </busStop>
    <busStop id="10122785948" lane="1106220054_0" startPos="64.37" endPos="79.37" friendlyPos="true"/>
    <busStop id="1043786437" name="Paral·lel" lane="38912601#2_0" startPos="2022.06" endPos="2222.06" friendlyPos="true" lines="L3">
        <access lane="-4745025#1_0" pos="180.92" length="195.50" friendlyPos="1"/>
        <access lane="4745025#0_0" pos="0.00" length="197.80" friendlyPos="1"/>
        <access lane="62213293#5_0" pos="43.91" length="195.52" friendlyPos="1"/>
    </busStop>
    <busStop id="108229618" name="Catalunya" lane="38912601#2_0" startPos="198.13" endPos="398.13" friendlyPos="true" lines="L3">
        <access lane="126304603#2_0" pos="12.33" length="26.78" friendlyPos="1"/>
        <access lane="882021158#2_0" pos="64.53" length="17.53" friendlyPos="1"/>
        <access lane="882021158#3_0" pos="16.53" length="21.72" friendlyPos="1"/>
        <access lane="966065801_0" pos="5.51" length="11.87" friendlyPos="1"/>
        <access lane="966065804_0" pos="0.00" length="6.87" friendlyPos="1"/>
    </busStop>
    <busStop id="108229629" name="Drassanes" lane="38912601#2_0" startPos="1363.07" endPos="1563.07" friendlyPos="true" lines="L3">
        <access lane="-1221715066#1_0" pos="15.48" length="5.37" friendlyPos="1"/>
        <access lane="1221715066#0_0" pos="37.44" length="10.17" friendlyPos="1"/>
        <access lane="126399546#2_0" pos="396.28" length="25.51" friendlyPos="1"/>
        <access lane="549832583_0" pos="11.36" length="13.46" friendlyPos="1"/>
        <access lane="907164234_0" pos="32.49" length="5.86" friendlyPos="1"/>
    </busStop>
    <busStop id="108253724" name="Vall d’Hebron | Sant Genís" lane="38912601#1_0" startPos="1694.17" endPos="1894.17" friendlyPos="true" lines="L3"/>
    <busStop id="108253730" name="Penitents" lane="38912601#1_0" startPos="2538.31" endPos="2738.31" friendlyPos="true" lines="L3"/>
    <busStop id="108253748" name="Fontana" lane="38912601#1_0" startPos="4592.12" endPos="4792.12" friendlyPos="true" lines="L3"/>
    <busStop id="11007874586" name="Placeta del Comerç" lane="263665167#1_0" startPos="101.92" endPos="116.92" friendlyPos="true"/>
    <busStop id="11014118197" name="El Born - Ciutadella - Zoo" lane="307054785#1_0" startPos="4.63" endPos="19.63" friendlyPos="true"/>
    <busStop id="11987558717" name="La Rambla - Pl Catalunya" lane="11680101#17_0" startPos="63.01" endPos="78.01" friendlyPos="true"/>
    <busStop id="11987558719" name="La Rambla - Liceu" lane="11680101#0_0" startPos="21.09" endPos="36.09" friendlyPos="true"/>
    <busStop id="11987558721" name="La Rambla - Pl del Teatre" lane="920602947#1_0" startPos="17.11" endPos="32.11" friendlyPos="true"/>
    <busStop id="1238021418" name="Canyelles" lane="38912601#0_0" startPos="1801.31" endPos="2001.31" friendlyPos="true" lines="L3"/>
    <busStop id="1417669619" name="Passeig de Gràcia" lane="38912601#1_0" startPos="6150.01" endPos="6350.01" friendlyPos="true" lines="L3">
        <access lane="240299472#0_0" pos="738.41" length="238.43" friendlyPos="1"/>
        <access lane="673080415#3_0" pos="181.65" length="210.32" friendlyPos="1"/>
    </busStop>
    <busStop id="1417675798" name="Espanya" lane="810841346_0" startPos="0.00" endPos="200.00" friendlyPos="true" lines="L1"/>
    <busStop id="1474608404" name="Pl Universitat" lane="328020781#1_0" startPos="66.98" endPos="81.98" friendlyPos="true" lines="N20 X1 A2 A1 e14 e15.1 e16"/>
    <busStop id="190985732" name="Museu d&apos;Historia de Catalunya" lane="237566145#0_0" startPos="2.43" endPos="17.43" friendlyPos="true"/>
    <busStop id="1966472090" name="Ronda Universitat - Plaça Catalunya" lane="542956873_0" startPos="101.70" endPos="116.70" friendlyPos="true" lines="N41 e11.1 e11.2 C6"/>
    <busStop id="216349848" name="Pl. Catalunya - Portal de l&apos;Àngel" lane="20355312#1_0" startPos="58.57" endPos="73.57" friendlyPos="true"/>
    <busStop id="2526271760" name="el Poble-sec" lane="38912601#3_0" startPos="318.93" endPos="518.93" friendlyPos="true" lines="L3">
        <access lane="789706473#0_0" pos="17.42" length="279.43" friendlyPos="1"/>
        <access lane="789706473#1_0" pos="0.69" length="271.31" friendlyPos="1"/>
        <access lane="893832405_0" pos="104.34" length="298.49" friendlyPos="1"/>
        <access lane="893832411#8_0" pos="291.83" length="274.07" friendlyPos="1"/>
        <access lane="893832411#9_0" pos="0.00" length="277.26" friendlyPos="1"/>
    </busStop>
    <busStop id="2536484166" name="Mercat de Sant Antoni" lane="237529472#1_0" startPos="63.15" endPos="78.15" friendlyPos="true"/>
    <busStop id="2536484171" name="Manso - Comte Borrell" lane="237529472#1_0" startPos="24.64" endPos="39.64" friendlyPos="true"/>
    <busStop id="2610196515" name="Pg. Joan de Borbó" lane="359739475#4_0" startPos="48.89" endPos="63.89" friendlyPos="true" lines="D20 N12 N28 V15 47 59 V19"/>
    <busStop id="2989714853" name="Pl.de Catalunya - Rambla Catalunya" lane="8380812#2_0" startPos="67.21" endPos="82.21" friendlyPos="true" lines="N20 N13 N15 24"/>
    <busStop id="2989714854" name="Pl. Catalunya - Pg. de Gràcia" lane="8380812#2_0" startPos="21.11" endPos="36.11" friendlyPos="true" lines="H16 N11 D50"/>
    <busStop id="3141961384" name="Barcelona- Plaça Catalunya" lane="810224247_0" startPos="808.44" endPos="1008.44" friendlyPos="true" lines="R1 R4 R12 R3 RG1">
        <access lane="882021105_0" pos="0.00" length="19.91" friendlyPos="1"/>
        <access lane="882021106_0" pos="0.00" length="6.24" friendlyPos="1"/>
        <access lane="882021112_0" pos="0.00" length="18.95" friendlyPos="1"/>
        <access lane="882021153#2_0" pos="10.20" length="1.33" friendlyPos="1"/>
        <access lane="882021153#3_0" pos="0.00" length="8.11" friendlyPos="1"/>
    </busStop>
    <busStop id="3397396360" name="Arc de Triomf" lane="810841352#0_0" startPos="172.86" endPos="372.86" friendlyPos="true" lines="L1"/>
    <busStop id="3397396367" name="Barceloneta" lane="871431262_0" startPos="669.33" endPos="869.33" friendlyPos="true" lines="L4">
        <access lane="1037369374#0_0" pos="0.20" length="11.84" friendlyPos="1"/>
        <access lane="1037369374#1_0" pos="2.82" length="5.72" friendlyPos="1"/>
        <access lane="1107113411_0" pos="0.20" length="14.50" friendlyPos="1"/>
        <access lane="237566146#0_0" pos="17.28" length="5.89" friendlyPos="1"/>
        <access lane="403379159#1_0" pos="19.45" length="12.97" friendlyPos="1"/>
    </busStop>
    <busStop id="3397396380" name="Catalunya" lane="810841352#0_0" startPos="1262.24" endPos="1462.24" friendlyPos="true" lines="L1">
        <access lane="789334288#0_0" pos="50.72" length="13.64" friendlyPos="1"/>
        <access lane="8380812#2_0" pos="47.66" length="6.49" friendlyPos="1"/>
        <access lane="882021153#2_0" pos="8.25" length="24.35" friendlyPos="1"/>
        <access lane="882021153#3_0" pos="0.00" length="26.69" friendlyPos="1"/>
        <access lane="966064735_0" pos="9.29" length="4.06" friendlyPos="1"/>
    </busStop>
    <busStop id="3397396596" name="Espanya" lane="810841352#1_0" startPos="1833.32" endPos="2033.32" friendlyPos="true" lines="L1"/>
    <busStop id="3397396612" name="Jaume I" lane="871431262_0" startPos="1391.18" endPos="1591.18" friendlyPos="true" lines="L4">
        <access lane="1221718176#1_0" pos="1.26" length="7.16" friendlyPos="1"/>
        <access lane="1221718177_0" pos="0.00" length="7.20" friendlyPos="1"/>
        <access lane="753752119#0_0" pos="0.00" length="6.69" friendlyPos="1"/>
        <access lane="882031260#2_0" pos="17.48" length="3.76" friendlyPos="1"/>
        <access lane="897744213#0_0" pos="0.00" length="9.66" friendlyPos="1"/>
    </busStop>
    <busStop id="3397396636" name="Paral·lel" lane="549603120_0" startPos="0.00" endPos="200.00" friendlyPos="true" lines="L2">
        <access lane="-4745025#1_0" pos="180.92" length="178.29" friendlyPos="1"/>
        <access lane="4745024#5_0" pos="74.21" length="224.23" friendlyPos="1"/>
        <access lane="4745025#0_0" pos="0.00" length="180.42" friendlyPos="1"/>
        <access lane="62213293#4_0" pos="96.96" length="223.06" friendlyPos="1"/>
        <access lane="62213293#5_0" pos="43.91" length="177.71" friendlyPos="1"/>
    </busStop>
    <busStop id="3397396637" name="Passeig de Gràcia" lane="871431262_0" startPos="2585.84" endPos="2785.84" friendlyPos="true" lines="L4">
        <access lane="1110435370#0_0" pos="0.00" length="108.42" friendlyPos="1"/>
        <access lane="126303837#2_0" pos="92.39" length="111.57" friendlyPos="1"/>
        <access lane="295263589#4_0" pos="7.56" length="115.10" friendlyPos="1"/>
        <access lane="316789524#1_0" pos="106.42" length="94.71" friendlyPos="1"/>
        <access lane="545030290#1_0" pos="87.05" length="101.68" friendlyPos="1"/>
    </busStop>
    <busStop id="3397396649" name="Rocafort" lane="810841352#1_0" startPos="1355.72" endPos="1555.72" friendlyPos="true" lines="L1"/>
    <busStop id="3397396654" name="Sant Antoni" lane="549603120_0" startPos="734.42" endPos="934.42" friendlyPos="true" lines="L2">
        <access lane="753739867#2_0" pos="0.20" length="18.56" friendlyPos="1"/>
        <access lane="789411281#2_0" pos="0.20" length="16.89" friendlyPos="1"/>
        <access lane="789411287#1_0" pos="122.03" length="18.29" friendlyPos="1"/>
        <access lane="789411287#2_0" pos="0.37" length="14.17" friendlyPos="1"/>
        <access lane="789411287#3_0" pos="0.00" length="14.87" friendlyPos="1"/>
    </busStop>
    <busStop id="3397396665" name="Tetuan" lane="549603120_0" startPos="2752.37" endPos="2952.37" friendlyPos="true" lines="L2"/>
    <busStop id="3397396671" name="Universitat" lane="810841352#1_0" startPos="271.40" endPos="471.40" friendlyPos="true" lines="L1">
        <access lane="20474085#6_0" pos="21.97" length="19.06" friendlyPos="1"/>
        <access lane="491295304_0" pos="60.67" length="0.64" friendlyPos="1"/>
        <access lane="545932590#1_0" pos="21.39" length="20.10" friendlyPos="1"/>
        <access lane="547249781#1_0" pos="60.35" length="22.75" friendlyPos="1"/>
        <access lane="992184319#1_0" pos="37.02" length="15.33" friendlyPos="1"/>
    </busStop>
    <busStop id="3397396672" name="Universitat" lane="549603120_0" startPos="1243.03" endPos="1443.03" friendlyPos="true" lines="L2">
        <access lane="-185957649#1_0" pos="21.00" length="17.85" friendlyPos="1"/>
        <access lane="185957649#1_0" pos="53.52" length="1.35" friendlyPos="1"/>
        <access lane="550735934_0" pos="0.00" length="24.16" friendlyPos="1"/>
        <access lane="789411298#1_0" pos="46.03" length="5.46" friendlyPos="1"/>
        <access lane="992184318_0" pos="0.00" length="24.33" friendlyPos="1"/>
    </busStop>
    <busStop id="3397396673" name="Urgell" lane="810841352#1_0" startPos="842.26" endPos="1042.26" friendlyPos="true" lines="L1">
        <access lane="237506930#0_0" pos="0.00" length="139.38" friendlyPos="1"/>
        <access lane="237506950#0_0" pos="0.00" length="146.68" friendlyPos="1"/>
        <access lane="243591204#0_0" pos="79.85" length="232.60" friendlyPos="1"/>
        <access lane="243591204#3_0" pos="0.00" length="244.23" friendlyPos="1"/>
        <access lane="766573378_0" pos="0.00" length="157.75" friendlyPos="1"/>
    </busStop>
    <busStop id="3397396674" name="Urquinaona" lane="871431262_0" startPos="2027.66" endPos="2227.66" friendlyPos="true" lines="L4">
        <access lane="-1213170281#1_0" pos="0.00" length="75.28" friendlyPos="1"/>
        <access lane="-20475892_0" pos="89.24" length="5.53" friendlyPos="1"/>
        <access lane="1213170282_0" pos="45.36" length="15.13" friendlyPos="1"/>
        <access lane="882031271#1_0" pos="79.98" length="4.27" friendlyPos="1"/>
        <access lane="882031272#4_0" pos="96.55" length="18.89" friendlyPos="1"/>
    </busStop>
    <busStop id="3398923286" name="Canyelles" lane="332758526#0_0" startPos="11456.01" endPos="11656.01" friendlyPos="true" lines="L3"/>
    <busStop id="3398923289" name="Catalunya" lane="332758526#0_0" startPos="3302.65" endPos="3502.65" friendlyPos="true" lines="L3">
        <access lane="128346418_0" pos="4.82" length="81.32" friendlyPos="1"/>
        <access lane="240436745_0" pos="7.74" length="84.42" friendlyPos="1"/>
        <access lane="966066832_0" pos="3.77" length="7.76" friendlyPos="1"/>
        <access lane="966066833_0" pos="5.66" length="14.18" friendlyPos="1"/>
        <access lane="966066836_0" pos="0.00" length="18.63" friendlyPos="1"/>
    </busStop>
    <busStop id="3398928295" name="Diagonal" lane="332758526#0_0" startPos="4629.87" endPos="4829.87" friendlyPos="true" lines="L3">
        <access lane="240299472#0_0" pos="82.61" length="292.27" friendlyPos="1"/>
        <access lane="673080415#3_0" pos="843.39" length="265.65" friendlyPos="1"/>
    </busStop>
    <busStop id="3398928297" name="Drassanes" lane="332758526#0_0" startPos="2050.10" endPos="2250.10" friendlyPos="true" lines="L3">
        <access lane="-1221715066#1_0" pos="15.39" length="0.49" friendlyPos="1"/>
        <access lane="1221715066#0_0" pos="37.53" length="4.31" friendlyPos="1"/>
        <access lane="126399546#2_0" pos="396.28" length="21.88" friendlyPos="1"/>
        <access lane="549832583_0" pos="11.36" length="18.94" friendlyPos="1"/>
        <access lane="907164234_0" pos="33.01" length="11.67" friendlyPos="1"/>
    </busStop>
    <busStop id="3398928307" name="Fontana" lane="332758526#0_0" startPos="5524.00" endPos="5724.00" friendlyPos="true" lines="L3"/>
    <busStop id="3398928318" name="Lesseps" lane="332758526#0_0" startPos="6048.27" endPos="6248.27" friendlyPos="true" lines="L3"/>
    <busStop id="3398928319" name="Liceu" lane="332758526#0_0" startPos="2626.67" endPos="2826.67" friendlyPos="true" lines="L3">
        <access lane="1117840338#0_0" pos="6.29" length="2.07" friendlyPos="1"/>
        <access lane="11680101#5_0" pos="6.38" length="15.79" friendlyPos="1"/>
        <access lane="126334615_0" pos="1.50" length="14.41" friendlyPos="1"/>
        <access lane="545937950#32_0" pos="15.67" length="9.50" friendlyPos="1"/>
        <access lane="545937950#9_0" pos="34.23" length="11.92" friendlyPos="1"/>
    </busStop>
    <busStop id="3398928324" name="Montbau" lane="332758526#0_0" startPos="8975.89" endPos="9175.89" friendlyPos="true" lines="L3"/>
    <busStop id="3398928325" name="Mundet" lane="332758526#0_0" startPos="9726.07" endPos="9926.07" friendlyPos="true" lines="L3"/>
    <busStop id="3398928329" name="Paral·lel" lane="332758526#0_0" startPos="1382.56" endPos="1582.56" friendlyPos="true" lines="L3">
        <access lane="-4745025#1_0" pos="180.92" length="205.57" friendlyPos="1"/>
        <access lane="4745025#0_0" pos="0.00" length="207.99" friendlyPos="1"/>
        <access lane="62213293#5_0" pos="43.91" length="206.03" friendlyPos="1"/>
    </busStop>
    <busStop id="3398928330" name="Passeig de Gràcia" lane="332758526#0_0" startPos="3968.21" endPos="4168.21" friendlyPos="true" lines="L3">
        <access lane="240299472#0_0" pos="738.56" length="243.35" friendlyPos="1"/>
        <access lane="673080415#3_0" pos="181.33" length="215.22" friendlyPos="1"/>
    </busStop>
    <busStop id="3398928331" name="Penitents" lane="332758526#0_0" startPos="7574.80" endPos="7774.80" friendlyPos="true" lines="L3"/>
    <busStop id="3398928336" name="el Poble-sec" lane="332758526#0_0" startPos="656.84" endPos="856.84" friendlyPos="true" lines="L3">
        <access lane="789706473#0_0" pos="17.42" length="286.92" friendlyPos="1"/>
        <access lane="789706473#1_0" pos="0.69" length="278.95" friendlyPos="1"/>
        <access lane="893832405_0" pos="104.34" length="305.64" friendlyPos="1"/>
        <access lane="893832411#8_0" pos="288.69" length="281.05" friendlyPos="1"/>
        <access lane="893832411#9_0" pos="0.00" length="284.83" friendlyPos="1"/>
    </busStop>
    <busStop id="3398928341" name="Roquetes" lane="332758526#1_0" startPos="699.20" endPos="899.20" friendlyPos="true" lines="L3"/>
    <busStop id="3398928355" name="Trinitat Nova" lane="332758526#1_0" startPos="1461.16" endPos="1661.16" friendlyPos="true" lines="L3"/>
    <busStop id="3398928359" name="Vallcarca" lane="332758526#0_0" startPos="6860.31" endPos="7060.31" friendlyPos="true" lines="L3"/>
    <busStop id="3398928360" name="Valldaura" lane="332758526#0_0" startPos="10537.90" endPos="10737.90" friendlyPos="true" lines="L3"/>
    <busStop id="3673333976" name="Plaça de Catalunya (FGC)" lane="363139234_0" startPos="0.00" endPos="100.53" friendlyPos="true" lines="L6">
        <access lane="1108368268_0" pos="53.27" length="18.49" friendlyPos="1"/>
        <access lane="1217899981_0" pos="11.45" length="57.09" friendlyPos="1"/>
        <access lane="1217899987_0" pos="14.79" length="55.57" friendlyPos="1"/>
        <access lane="882273556#1_0" pos="77.75" length="9.40" friendlyPos="1"/>
        <access lane="886348384#0_0" pos="58.09" length="20.93" friendlyPos="1"/>
    </busStop>
    <busStop id="3673333977" name="Plaça de Catalunya (FGC)" lane="867668762_0" startPos="0.00" endPos="101.06" friendlyPos="true" lines="L7">
        <access lane="1108368268_0" pos="53.41" length="31.24" friendlyPos="1"/>
        <access lane="1217899981_0" pos="11.45" length="52.79" friendlyPos="1"/>
        <access lane="1217899985_0" pos="14.43" length="55.69" friendlyPos="1"/>
        <access lane="882273556#1_0" pos="77.59" length="3.34" friendlyPos="1"/>
        <access lane="886348384#0_0" pos="57.92" length="33.68" friendlyPos="1"/>
    </busStop>
    <busStop id="3699659474" name="Paral·lel" lane="447856553_0" startPos="3433.94" endPos="3633.94" friendlyPos="true" lines="L2">
        <access lane="-4745025#1_0" pos="180.92" length="168.51" friendlyPos="1"/>
        <access lane="4745024#5_0" pos="74.21" length="213.24" friendlyPos="1"/>
        <access lane="4745025#0_0" pos="0.00" length="170.50" friendlyPos="1"/>
        <access lane="62213293#4_0" pos="96.96" length="212.04" friendlyPos="1"/>
        <access lane="62213293#5_0" pos="43.91" length="167.50" friendlyPos="1"/>
    </busStop>
    <busStop id="3699659475" name="Trinitat Nova" lane="38912601#0_0" startPos="0.00" endPos="200.00" friendlyPos="true" lines="L3"/>
    <busStop id="3888388697" name="Barcelona- Plaça Catalunya" lane="385483999_0" startPos="849.68" endPos="1049.68" friendlyPos="true" lines="R1 R3 R4 R12">
        <access lane="789334288#0_0" pos="49.24" length="20.74" friendlyPos="1"/>
        <access lane="8380812#2_0" pos="49.05" length="13.63" friendlyPos="1"/>
        <access lane="882021153#2_0" pos="9.89" length="17.33" friendlyPos="1"/>