<?xml version="1.0" encoding="UTF-8"?>

<!-- generated on 2024-04-18 17:38:40 by Eclipse SUMO netconvert Version 1.19.0
<configuration xmlns:xsi="http://www.w3.org/2001/XMLSchema-instance" xsi:noNamespaceSchemaLocation="http://sumo.dlr.de/xsd/netconvertConfiguration.xsd">

    <input>
        <type-files value="${SUMO_HOME}/data/typemap/osmNetconvert.typ.xml,${SUMO_HOME}/data/typemap/osmNetconvertAerialway.typ.xml"/>
        <osm-files value="osm_bbox.osm.xml.gz"/>
    </input>

    <output>
        <output-file value="osm.net.xml.gz"/>
        <output.street-names value="true"/>
        <output.original-names value="true"/>
        <ptstop-output value="osm_stops.add.xml"/>
        <ptline-output value="osm_ptlines.xml"/>
    </output>

    <projection>
        <proj.utm value="true"/>
    </projection>

    <processing>
        <geometry.remove value="true"/>
        <roundabouts.guess value="true"/>
    </processing>

    <tls_building>
        <tls.discard-simple value="true"/>
        <tls.join value="true"/>
        <tls.guess-signals value="true"/>
        <tls.default-type value="actuated"/>
    </tls_building>

    <ramp_guessing>
        <ramps.guess value="true"/>
    </ramp_guessing>

    <junctions>
        <junctions.join value="true"/>
        <junctions.corner-detail value="5"/>
    </junctions>

    <railway>
        <railway.topology.repair value="true"/>
    </railway>

</configuration>
-->

<additional xmlns:xsi="http://www.w3.org/2001/XMLSchema-instance" xsi:noNamespaceSchemaLocation="http://sumo.dlr.de/xsd/additional_file.xsd">
    <busStop id="-1118396324" name="Barcelona - Sants" lane="-772266517#0_0" startPos="0.00" endPos="119.28" friendlyPos="true">
        <access lane="1214775224#0_0" pos="0.00" length="2.73" friendlyPos="1"/>
        <access lane="1214775225#1_0" pos="0.20" length="1.92" friendlyPos="1"/>
        <access lane="243493001#1_0" pos="0.00" length="2.28" friendlyPos="1"/>
        <access lane="773885192#1_0" pos="0.20" length="3.42" friendlyPos="1"/>
        <access lane="886763987#1_0" pos="30.65" length="3.67" friendlyPos="1"/>
    </busStop>
    <busStop id="-1118396324@13280819" name="Barcelona - Sants" lane="-772266520#2_0" startPos="0.00" endPos="20.05" friendlyPos="true">
        <access lane="1214775224#0_0" pos="0.00" length="2.73" friendlyPos="1"/>
        <access lane="1214775225#1_0" pos="0.20" length="1.92" friendlyPos="1"/>
        <access lane="243493001#1_0" pos="0.00" length="2.28" friendlyPos="1"/>
        <access lane="773885192#1_0" pos="0.20" length="3.42" friendlyPos="1"/>
        <access lane="886763987#1_0" pos="30.65" length="3.67" friendlyPos="1"/>
    </busStop>
    <busStop id="-1118408124" name="Barcelona - Sants" lane="-656075744#0_0" startPos="0.00" endPos="178.78" friendlyPos="true">
        <access lane="180403384#1_0" pos="12.20" length="2.60" friendlyPos="1"/>
        <access lane="243493001#1_0" pos="12.09" length="5.92" friendlyPos="1"/>
        <access lane="243493001#3_0" pos="18.58" length="14.91" friendlyPos="1"/>
        <access lane="672174356#2_0" pos="12.43" length="6.95" friendlyPos="1"/>
        <access lane="886763987#1_0" pos="18.72" length="9.84" friendlyPos="1"/>
    </busStop>
    <busStop id="-1118408124@13431684" name="Barcelona - Sants" lane="-656075744#0_0" startPos="0.00" endPos="178.78" friendlyPos="true">
        <access lane="180403384#1_0" pos="12.20" length="2.60" friendlyPos="1"/>
        <access lane="243493001#1_0" pos="12.09" length="5.92" friendlyPos="1"/>
        <access lane="243493001#3_0" pos="18.58" length="14.91" friendlyPos="1"/>
        <access lane="672174356#2_0" pos="12.43" length="6.95" friendlyPos="1"/>
        <access lane="886763987#1_0" pos="18.72" length="9.84" friendlyPos="1"/>
    </busStop>
    <busStop id="-11573383354" name="Barcelona - c. Tarragona" lane="-1245668409_0" startPos="34.93" endPos="49.93" friendlyPos="true" lines="LN 102 Barcelona - Amer - Olot"/>
    <busStop id="-1191150240" name="Estació d&apos;Autobusos Barcelona Nord" lane="-4746993#2_0" startPos="0.00" endPos="15.00" friendlyPos="true" lines="1728 N1135 N717 N707 N781 VAC-099 e12 N740 N728 721 728 1721 N758 N708 788 N1720"/>
    <busStop id="-1305698297" name="Barcelona - Sants" lane="-772266518#0_0" startPos="0.00" endPos="18.17" friendlyPos="true">
        <access lane="1214775224#0_0" pos="0.20" length="6.51" friendlyPos="1"/>
        <access lane="1214775225#1_0" pos="0.20" length="8.01" friendlyPos="1"/>
        <access lane="180403384#0_0" pos="11.61" length="5.44" friendlyPos="1"/>
        <access lane="243493001#4_0" pos="33.26" length="2.70" friendlyPos="1"/>
        <access lane="886763987#2_0" pos="1.88" length="6.48" friendlyPos="1"/>
    </busStop>
    <busStop id="-1305698325" name="Barcelona - Sants" lane="-772558501_0" startPos="174.30" endPos="374.30" friendlyPos="true">
        <access lane="-1218172770_0" pos="7.73" length="48.84" friendlyPos="1"/>
        <access lane="-1218172774#0_0" pos="71.91" length="20.96" friendlyPos="1"/>
        <access lane="-1218172775#0_0" pos="0.00" length="47.29" friendlyPos="1"/>
        <access lane="1218172774#0_0" pos="26.17" length="16.16" friendlyPos="1"/>
        <access lane="173192304#2_0" pos="115.27" length="2.13" friendlyPos="1"/>
    </busStop>
    <busStop id="-1305698364" name="Barcelona - Sants" lane="-385635183_0" startPos="175.13" endPos="375.13" friendlyPos="true">
        <access lane="-1218172774#0_0" pos="59.32" length="26.50" friendlyPos="1"/>
        <access lane="-1218172774#1_0" pos="41.93" length="62.93" friendlyPos="1"/>
        <access lane="-1218172775#0_0" pos="0.00" length="66.97" friendlyPos="1"/>
        <access lane="1218172774#0_0" pos="38.76" length="21.70" friendlyPos="1"/>
        <access lane="173192304#2_0" pos="102.85" length="8.46" friendlyPos="1"/>
    </busStop>
    <busStop id="-1401485267" name="Pg Joan de Borbó - Pl del Mar" lane="-902517725#4_0" startPos="49.69" endPos="64.69" friendlyPos="true" lines="V15 V19"/>
    <busStop id="-1404018064" name="Maremagnum" lane="-126715484#0_0" startPos="27.96" endPos="42.96" friendlyPos="true" lines="V17"/>
    <busStop id="-1899907352" name="Gràcia" lane="-23951944_0" startPos="0.00" endPos="200.00" friendlyPos="true">
        <access lane="-540501371#0_0" pos="0.00" length="5.54" friendlyPos="1"/>
        <access lane="-540501371#1_0" pos="4.30" length="10.31" friendlyPos="1"/>
        <access lane="1059802035#0_0" pos="0.20" length="8.99" friendlyPos="1"/>
        <access lane="881228550#3_0" pos="18.55" length="9.93" friendlyPos="1"/>
        <access lane="881228550#4_0" pos="0.00" length="4.83" friendlyPos="1"/>
    </busStop>
    <busStop id="-255406869" name="Sant Gervasi" lane="-363322621_0" startPos="1827.16" endPos="2027.16" friendlyPos="true">
        <access lane="-54514989#1_0" pos="19.33" length="10.55" friendlyPos="1"/>
        <access lane="53725383#2_0" pos="7.08" length="16.57" friendlyPos="1"/>
        <access lane="53725383#3_0" pos="0.20" length="8.95" friendlyPos="1"/>
        <access lane="53725385#3_0" pos="26.70" length="13.27" friendlyPos="1"/>
        <access lane="54514989#0_0" pos="2.12" length="3.85" friendlyPos="1"/>
    </busStop>
    <busStop id="-255406873" name="Muntaner" lane="-363322621_0" startPos="1375.39" endPos="1575.39" friendlyPos="true">
        <access lane="-541430462#1_0" pos="38.69" length="10.79" friendlyPos="1"/>
        <access lane="1173897769_0" pos="0.00" length="28.71" friendlyPos="1"/>
        <access lane="541430462#1_0" pos="21.86" length="3.61" friendlyPos="1"/>
        <access lane="881228558#1_0" pos="38.54" length="12.15" friendlyPos="1"/>
        <access lane="881228560#1_0" pos="42.96" length="14.24" friendlyPos="1"/>
    </busStop>
    <busStop id="-255406917" name="Provença" lane="-363054422_0" startPos="656.66" endPos="856.66" friendlyPos="true">
        <access lane="1217897538_0" pos="0.00" length="50.46" friendlyPos="1"/>
        <access lane="1217897539_0" pos="0.00" length="48.21" friendlyPos="1"/>
        <access lane="734014941#3_0" pos="38.05" length="15.72" friendlyPos="1"/>
        <access lane="794347553#0_0" pos="34.92" length="5.82" friendlyPos="1"/>
        <access lane="903019487#1_0" pos="45.55" length="14.96" friendlyPos="1"/>
    </busStop>
    <busStop id="-259649936" name="la Bonanova" lane="-363322621_0" startPos="802.24" endPos="1002.24" friendlyPos="true">
        <access lane="-308378774#0_0" pos="44.17" length="11.49" friendlyPos="1"/>
        <access lane="308378774#0_0" pos="99.90" length="2.91" friendlyPos="1"/>
        <access lane="418062721_0" pos="0.77" length="18.14" friendlyPos="1"/>
        <access lane="881228566#3_0" pos="12.74" length="15.19" friendlyPos="1"/>
        <access lane="881228566#4_0" pos="0.00" length="14.49" friendlyPos="1"/>
    </busStop>
    <busStop id="-259649938" name="les Tres Torres" lane="-363322621_0" startPos="389.11" endPos="589.11" friendlyPos="true">
        <access lane="-308378772#4_0" pos="66.95" length="11.51" friendlyPos="1"/>
        <access lane="308378772#3_0" pos="19.36" length="2.89" friendlyPos="1"/>
        <access lane="881228574#1_0" pos="21.07" length="10.59" friendlyPos="1"/>
        <access lane="881228575#3_0" pos="17.08" length="22.66" friendlyPos="1"/>
        <access lane="881228575#4_0" pos="0.00" length="31.38" friendlyPos="1"/>
    </busStop>
    <busStop id="-259650063" name="Plaça Molina" lane="-23951944_0" startPos="471.81" endPos="671.81" friendlyPos="true">
        <access lane="-237659854_0" pos="2.65" length="0.46" friendlyPos="1"/>
        <access lane="1239350122#4_0" pos="0.20" length="22.55" friendlyPos="1"/>
        <access lane="237659854_0" pos="11.36" length="14.86" friendlyPos="1"/>
        <access lane="304576408#1_0" pos="4.24" length="17.04" friendlyPos="1"/>
        <access lane="881228533_0" pos="19.46" length="16.80" friendlyPos="1"/>
    </busStop>
    <busStop id="-259650072" name="Pàdua" lane="-23951944_0" startPos="494.87" endPos="694.87" friendlyPos="true">
        <access lane="-37133254#5_0" pos="105.62" length="16.01" friendlyPos="1"/>
        <access lane="881941613#0_0" pos="0.20" length="12.56" friendlyPos="1"/>
        <access lane="881941613#1_0" pos="0.00" length="14.38" friendlyPos="1"/>
        <access lane="881941676#1_0" pos="110.74" length="11.98" friendlyPos="1"/>
        <access lane="881941676#2_0" pos="2.30" length="8.83" friendlyPos="1"/>
    </busStop>
    <busStop id="-259650081" name="el Putxet" lane="-23951944_0" startPos="494.87" endPos="694.87" friendlyPos="true">
        <access lane="-262514248#1_0" pos="47.83" length="3.85" friendlyPos="1"/>
        <access lane="871423550_0" pos="0.00" length="7.50" friendlyPos="1"/>
        <access lane="871423551_0" pos="0.00" length="4.52" friendlyPos="1"/>
        <access lane="871423552#1_0" pos="6.82" length="1.46" friendlyPos="1"/>
        <access lane="871423552#2_0" pos="0.00" length="7.62" friendlyPos="1"/>
    </busStop>
    <busStop id="-3141961384" name="Barcelona- Plaça Catalunya" lane="-385539466#0_0" startPos="0.00" endPos="200.00" friendlyPos="true">
        <access lane="882021105_0" pos="0.00" length="19.91" friendlyPos="1"/>
        <access lane="882021106_0" pos="0.00" length="6.24" friendlyPos="1"/>
        <access lane="882021112_0" pos="0.00" length="18.95" friendlyPos="1"/>
        <access lane="882021153#2_0" pos="10.20" length="1.33" friendlyPos="1"/>
        <access lane="882021153#3_0" pos="0.00" length="8.11" friendlyPos="1"/>
    </busStop>
    <busStop id="-3377296749" name="Plaça Espanya" lane="-1177980248_0" startPos="0.00" endPos="66.71" friendlyPos="true">
        <access lane="1173638335#0_0" pos="0.00" length="4.14" friendlyPos="1"/>
        <access lane="1173638335#1_0" pos="0.00" length="9.82" friendlyPos="1"/>
        <access lane="1181131514_0" pos="0.00" length="2.54" friendlyPos="1"/>
        <access lane="1217892411_0" pos="0.00" length="4.27" friendlyPos="1"/>
        <access lane="1217892412_0" pos="0.00" length="3.01" friendlyPos="1"/>
    </busStop>
    <busStop id="-3394604140" name="Ciutadella | Vila Olímpica" lane="-337820283_0" startPos="38.03" endPos="63.03" friendlyPos="true">
        <access lane="1219057550#4_0" pos="10.63" length="17.34" friendlyPos="1"/>
        <access lane="288789439_0" pos="3.68" length="19.49" friendlyPos="1"/>
        <access lane="288789441_0" pos="2.30" length="24.18" friendlyPos="1"/>
        <access lane="288789443#0_0" pos="0.00" length="23.94" friendlyPos="1"/>
        <access lane="357801600#2_0" pos="12.20" length="15.91" friendlyPos="1"/>
    </busStop>
    <busStop id="-3394604141" name="Ciutadella | Vila Olímpica" lane="-337820288#0_0" startPos="9.55" endPos="34.55" friendlyPos="true">
        <access lane="1219057550#4_0" pos="10.63" length="19.58" friendlyPos="1"/>
        <access lane="288789439_0" pos="3.68" length="18.49" friendlyPos="1"/>
        <access lane="288789441_0" pos="2.30" length="22.73" friendlyPos="1"/>
        <access lane="288789443#0_0" pos="0.00" length="25.04" friendlyPos="1"/>
        <access lane="357801600#2_0" pos="12.15" length="10.54" friendlyPos="1"/>
    </busStop>
    <busStop id="-3395374193" name="Francesc Macià" lane="-338057515_0" startPos="8.80" endPos="33.80" friendlyPos="true">
        <access lane="134571435#2_0" pos="50.26" length="7.80" friendlyPos="1"/>
        <access lane="134571435#4_0" pos="62.20" length="2.47" friendlyPos="1"/>
        <access lane="238862112#4_0" pos="41.53" length="14.62" friendlyPos="1"/>
        <access lane="793077574_0" pos="36.35" length="17.61" friendlyPos="1"/>
        <access lane="984712370_0" pos="139.33" length="12.85" friendlyPos="1"/>
    </busStop>
    <busStop id="-3395374194" name="Francesc Macià" lane="-405215272#0_0" startPos="118.41" endPos="143.41" friendlyPos="true">
        <access lane="134571435#2_0" pos="50.24" length="2.92" friendlyPos="1"/>
        <access lane="134571435#4_0" pos="62.24" length="8.25" friendlyPos="1"/>
        <access lane="238862112#4_0" pos="41.51" length="25.34" friendlyPos="1"/>
        <access lane="793077574_0" pos="36.24" length="28.33" friendlyPos="1"/>
        <access lane="984712370_0" pos="139.39" length="2.13" friendlyPos="1"/>
    </busStop>
    <busStop id="-3397396360" name="Arc de Triomf" lane="-810841352#0_0" startPos="1096.39" endPos="1296.39" friendlyPos="true">
        <access lane="1117830967_0" pos="10.80" length="46.65" friendlyPos="1"/>
        <access lane="1117830968#0_0" pos="13.33" length="38.33" friendlyPos="1"/>
        <access lane="882565409#1_0" pos="73.96" length="35.69" friendlyPos="1"/>
        <access lane="882570106#2_0" pos="0.20" length="46.35" friendlyPos="1"/>
        <access lane="882570108#0_0" pos="0.00" length="47.67" friendlyPos="1"/>
    </busStop>
    <busStop id="-3397396380" name="Catalunya" lane="-810841352#0_0" startPos="7.00" endPos="207.00" friendlyPos="true">
        <access lane="789334288#0_0" pos="50.72" length="13.64" friendlyPos="1"/>
        <access lane="8380812#2_0" pos="47.66" length="6.49" friendlyPos="1"/>
        <access lane="882021153#2_0" pos="8.25" length="24.35" friendlyPos="1"/>
        <access lane="882021153#3_0" pos="0.00" length="26.69" friendlyPos="1"/>
        <access lane="966064735_0" pos="9.29" length="4.06" friendlyPos="1"/>
    </busStop>
    <busStop id="-3397396604" name="Glòries" lane="-810841352#0_0" startPos="2485.08" endPos="2685.08" friendlyPos="true">
        <access lane="1090673468#0_0" pos="0.00" length="55.99" friendlyPos="1"/>
        <access lane="1123298168_0" pos="0.00" length="41.93" friendlyPos="1"/>
        <access lane="1214219331_0" pos="0.20" length="55.70" friendlyPos="1"/>
        <access lane="1223260161#0_0" pos="26.29" length="33.90" friendlyPos="1"/>
        <access lane="288786006_0" pos="22.80" length="16.22" friendlyPos="1"/>
    </busStop>
    <busStop id="-3397396627" name="Marina" lane="-810841352#0_0" startPos="1661.74" endPos="1861.74" friendlyPos="true">
        <access lane="65184548#0_0" pos="16.91" length="15.01" friendlyPos="1"/>
        <access lane="790872178#0_0" pos="1.78" length="10.91" friendlyPos="1"/>
        <access lane="790872178#1_0" pos="0.00" length="10.30" friendlyPos="1"/>
        <access lane="870474825#3_0" pos="0.20" length="12.20" friendlyPos="1"/>
        <access lane="888252534#2_0" pos="61.66" length="6.48" friendlyPos="1"/>
    </busStop>
    <busStop id="-3398928311" name="Gràcia" lane="-363048984_0" startPos="0.00" endPos="200.00" friendlyPos="true">
        <access lane="-540501371#0_0" pos="0.00" length="4.25" friendlyPos="1"/>
        <access lane="-540501371#1_0" pos="4.30" length="9.57" friendlyPos="1"/>
        <access lane="540501371#0_0" pos="52.77" length="10.22" friendlyPos="1"/>
        <access lane="540501371#1_0" pos="0.00" length="13.36" friendlyPos="1"/>
        <access lane="881228550#4_0" pos="0.00" length="14.52" friendlyPos="1"/>
    </busStop>
    <busStop id="-3398928312" name="Gràcia" lane="-363164188#0_0" startPos="497.63" endPos="697.63" friendlyPos="true">
        <access lane="540501371#0_0" pos="52.77" length="26.91" friendlyPos="1"/>
        <access lane="540501371#1_0" pos="4.30" length="15.58" friendlyPos="1"/>
        <access lane="542843797#0_0" pos="4.84" length="13.58" friendlyPos="1"/>
        <access lane="542843797#1_0" pos="0.00" length="26.51" friendlyPos="1"/>
        <access lane="881228549#0_0" pos="36.53" length="3.88" friendlyPos="1"/>
    </busStop>
    <busStop id="-3398928326" name="Muntaner" lane="-363048984_0" startPos="947.12" endPos="1147.12" friendlyPos="true">
        <access lane="-541430462#1_0" pos="38.94" length="3.10" friendlyPos="1"/>
        <access lane="1173897769_0" pos="0.00" length="31.44" friendlyPos="1"/>
        <access lane="541430462#1_0" pos="21.61" length="11.30" friendlyPos="1"/>
        <access lane="881228558#1_0" pos="39.09" length="4.49" friendlyPos="1"/>
        <access lane="881228560#1_0" pos="43.50" length="21.89" friendlyPos="1"/>
    </busStop>
    <busStop id="-3398928332" name="Plaça Espanya" lane="-1177980249_0" startPos="0.00" endPos="35.40" friendlyPos="true">
        <access lane="1173638335#0_0" pos="0.00" length="4.18" friendlyPos="1"/>
        <access lane="1173638335#1_0" pos="0.25" length="4.53" friendlyPos="1"/>
        <access lane="1181131511#1_0" pos="0.32" length="5.20" friendlyPos="1"/>
        <access lane="1181131514_0" pos="0.00" length="6.34" friendlyPos="1"/>
        <access lane="1217892411_0" pos="0.00" length="5.62" friendlyPos="1"/>
    </busStop>
    <busStop id="-3398928333" name="Plaça Molina" lane="-363164188#0_0" startPos="11.80" endPos="211.80" friendlyPos="true">
        <access lane="-237659854_0" pos="2.57" length="5.80" friendlyPos="1"/>
        <access lane="1239350122#4_0" pos="0.20" length="22.22" friendlyPos="1"/>
        <access lane="237659854_0" pos="11.45" length="20.20" friendlyPos="1"/>
        <access lane="304576408#1_0" pos="4.01" length="22.36" friendlyPos="1"/>
        <access lane="881228533_0" pos="19.10" length="11.50" friendlyPos="1"/>
    </busStop>
    <busStop id="-3398928337" name="Provença" lane="-810841349#3_0" startPos="203.55" endPos="403.55" friendlyPos="true">
        <access lane="1217897538_0" pos="0.00" length="49.87" friendlyPos="1"/>
        <access lane="1217897539_0" pos="0.00" length="49.15" friendlyPos="1"/>
        <access lane="734014941#3_0" pos="37.94" length="10.76" friendlyPos="1"/>
        <access lane="794347553#0_0" pos="34.85" length="10.78" friendlyPos="1"/>
        <access lane="903019487#1_0" pos="45.69" length="10.00" friendlyPos="1"/>
    </busStop>
    <busStop id="-3398928339" name="Pàdua" lane="-23951944_0" startPos="494.87" endPos="694.87" friendlyPos="true">
        <access lane="37133254#4_0" pos="0.00" length="12.58" friendlyPos="1"/>
        <access lane="881941613#1_0" pos="0.00" length="7.53" friendlyPos="1"/>
        <access lane="881941676#2_0" pos="0.00" length="14.22" friendlyPos="1"/>
        <access lane="881941677#1_0" pos="112.99" length="10.19" friendlyPos="1"/>
        <access lane="881941677#2_0" pos="0.00" length="10.19" friendlyPos="1"/>
    </busStop>
    <busStop id="-3398928343" name="Sant Gervasi" lane="-363048984_0" startPos="497.92" endPos="697.92" friendlyPos="true">
        <access lane="-54514989#1_0" pos="19.12" length="2.32" friendlyPos="1"/>
        <access lane="53725383#3_0" pos="0.20" length="15.27" friendlyPos="1"/>
        <access lane="53725385#3_0" pos="27.01" length="5.04" friendlyPos="1"/>
        <access lane="54514989#0_0" pos="2.33" length="12.08" friendlyPos="1"/>
        <access lane="881228528#1_0" pos="20.45" length="9.91" friendlyPos="1"/>
    </busStop>
    <busStop id="-3398928365" name="el Putxet" lane="-23951944_0" startPos="494.87" endPos="694.87" friendlyPos="true">
        <access lane="-262514248#1_0" pos="47.89" length="8.91" friendlyPos="1"/>
        <access lane="262514248#1_0" pos="13.52" length="5.49" friendlyPos="1"/>
        <access lane="871423537_0" pos="0.00" length="10.95" friendlyPos="1"/>
        <access lane="871423551_0" pos="0.00" length="9.23" friendlyPos="1"/>
        <access lane="871423552#1_0" pos="3.45" length="1.52" friendlyPos="1"/>
    </busStop>
    <busStop id="-3398928366" name="la Bonanova" lane="-363048984_0" startPos="1523.85" endPos="1723.85" friendlyPos="true">
        <access lane="-308378774#0_0" pos="44.40" length="2.89" friendlyPos="1"/>
        <access lane="308378774#0_0" pos="99.67" length="11.51" friendlyPos="1"/>
        <access lane="881228566#3_0" pos="12.74" length="23.54" friendlyPos="1"/>
        <access lane="881228566#4_0" pos="0.00" length="22.99" friendlyPos="1"/>
        <access lane="881228567#0_0" pos="96.17" length="11.09" friendlyPos="1"/>
    </busStop>
    <busStop id="-3398928369" name="les Tres Torres" lane="-363048984_0" startPos="1938.11" endPos="2138.11" friendlyPos="true">
        <access lane="-308378772#4_0" pos="66.05" length="3.03" friendlyPos="1"/>
        <access lane="1171004170_0" pos="0.00" length="26.72" friendlyPos="1"/>
        <access lane="308378772#3_0" pos="20.26" length="11.37" friendlyPos="1"/>
        <access lane="881228574#1_0" pos="21.96" length="19.07" friendlyPos="1"/>
        <access lane="881228575#3_0" pos="15.85" length="14.27" friendlyPos="1"/>
    </busStop>
    <busStop id="-3673333976" name="Plaça de Catalunya (FGC)" lane="-867668763_0" startPos="0.00" endPos="100.53" friendlyPos="true">
        <access lane="1108368268_0" pos="53.27" length="18.49" friendlyPos="1"/>
        <access lane="1217899981_0" pos="11.45" length="57.09" friendlyPos="1"/>
        <access lane="1217899987_0" pos="14.79" length="55.57" friendlyPos="1"/>
        <access lane="882273556#1_0" pos="77.75" length="9.40" friendlyPos="1"/>
        <access lane="886348384#0_0" pos="58.09" length="20.93" friendlyPos="1"/>
    </busStop>
    <busStop id="-3673333977" name="Plaça de Catalunya (FGC)" lane="-867668758_0" startPos="0.00" endPos="101.06" friendlyPos="true">
        <access lane="1108368268_0" pos="53.41" length="31.24" friendlyPos="1"/>
        <access lane="1217899981_0" pos="11.45" length="52.79" friendlyPos="1"/>
        <access lane="1217899985_0" pos="14.43" length="55.69" friendlyPos="1"/>
        <access lane="882273556#1_0" pos="77.59" length="3.34" friendlyPos="1"/>
        <access lane="886348384#0_0" pos="57.92" length="33.68" friendlyPos="1"/>
    </busStop>
    <busStop id="-3888388695" name="Barcelona - Arc de Triomf" lane="-1134144723_0" startPos="0.00" endPos="200.00" friendlyPos="true">
        <access lane="1117830967_0" pos="0.00" length="18.06" friendlyPos="1"/>
        <access lane="1117830968#0_0" pos="0.00" length="26.05" friendlyPos="1"/>
        <access lane="882565409#1_0" pos="83.77" length="7.47" friendlyPos="1"/>
        <access lane="882570107_0" pos="0.00" length="25.57" friendlyPos="1"/>
        <access lane="882570108#0_0" pos="0.00" length="15.99" friendlyPos="1"/>
    </busStop>
    <busStop id="-3888388697" name="Barcelona- Plaça Catalunya" lane="-810841348#0_0" startPos="16.14" endPos="216.14" friendlyPos="true">
        <access lane="789334288#0_0" pos="49.24" length="20.74" friendlyPos="1"/>
        <access lane="8380812#2_0" pos="49.05" length="13.63" friendlyPos="1"/>
        <access lane="882021153#2_0" pos="9.89" length="17.33" friendlyPos="1"/>
        <access lane="882021153#3_0" pos="0.00" length="19.28" friendlyPos="1"/>
        <access lane="966064735_0" pos="9.29" length="11.50" friendlyPos="1"/>
    </busStop>
    <busStop id="-417330037" name="Sarrià" lane="-363322621_0" startPos="0.00" endPos="200.00" friendlyPos="true">
        <access lane="198184098#9_0" pos="120.95" length="198.66" friendlyPos="1"/>
        <access lane="395946177#0_0" pos="0.00" length="177.17" friendlyPos="1"/>
    </busStop>
    <busStop id="-429766634" name="Barcelona - Arc de Triomf" lane="40511738_0" startPos="664.96" endPos="864.96" friendlyPos="true">
        <access lane="1117830967_0" pos="0.00" length="13.59" friendlyPos="1"/>
        <access lane="1117830968#0_0" pos="0.00" length="20.40" friendlyPos="1"/>
        <access lane="882565409#1_0" pos="87.14" length="8.51" friendlyPos="1"/>
        <access lane="882570106#2_0" pos="0.20" length="20.57" friendlyPos="1"/>
        <access lane="882570108#0_0" pos="0.00" length="13.70" friendlyPos="1"/>
    </busStop>
    <busStop id="-4449876855" name="Urquinaona" lane="-810841352#0_0" startPos="489.50" endPos="689.50" friendlyPos="true">
        <access lane="511211614#2_0" pos="53.38" length="1.89" friendlyPos="1"/>
        <access lane="546133684#2_0" pos="0.00" length="55.35" friendlyPos="1"/>
        <access lane="867482756_0" pos="15.54" length="55.53" friendlyPos="1"/>
        <access lane="886345740#0_0" pos="49.12" length="27.88" friendlyPos="1"/>
        <access lane="886345746_0" pos="53.68" length="5.94" friendlyPos="1"/>
    </busStop>
    <busStop id="-4743352986" name="Barcelona - Passeig de Gràcia" lane="-772794870_0" startPos="0.00" endPos="200.00" friendlyPos="true">
        <access lane="608032994#1_0" pos="28.74" length="19.75" friendlyPos="1"/>
        <access lane="608034985#1_0" pos="93.09" length="15.04" friendlyPos="1"/>
        <access lane="866377968_0" pos="5.46" length="32.01" friendlyPos="1"/>
        <access lane="866377974#1_0" pos="0.00" length="35.99" friendlyPos="1"/>
        <access lane="866377979#1_0" pos="2.40" length="26.85" friendlyPos="1"/>
    </busStop>
    <busStop id="-5259830245" name="Les Corts - Vallespir" lane="-544124172#0_0" startPos="70.20" endPos="85.20" friendlyPos="true" lines="H8 59"/>
    <busStop id="-5341631256" name="Diagonal - Numància" lane="-544243183_0" startPos="35.28" endPos="50.28" friendlyPos="true" lines="X97 X84 X83 L97"/>
    <busStop id="-5341631257" name="Diagonal - Doctor Fleming" lane="-283778455#1_0" startPos="28.33" endPos="43.33" friendlyPos="true" lines="X79 e15.2"/>
    <busStop id="-5375631705" name="Passeig de Gràcia - La Pedrera" lane="-908375867#1_0" startPos="40.56" endPos="55.56" friendlyPos="true" lines="101"/>
    <busStop id="-5375631706" name="Casa Batlló - Fundacio Antoni Tapies" lane="-908375883#2_0" startPos="45.94" endPos="60.94" friendlyPos="true" lines="100 101"/>
    <busStop id="-5609793234" name="Pi i Margall-Escorial" lane="-208568869#3_0" startPos="19.36" endPos="34.36" friendlyPos="true" lines="N6 V19"/>
    <busStop id="-5643828728" name="Hospital del Mar" lane="-546632548#0_0" startPos="40.43" endPos="55.43" friendlyPos="true" lines="N28"/>
    <busStop id="-5760480311" name="Pg. de Gràcia - Ronda de Sant Pere" lane="-126301387#1_0" startPos="34.99" endPos="49.99" friendlyPos="true" lines="19"/>
    <busStop id="-7215417855" name="Barcelona - Estació de França" lane="-772812646_0" startPos="281.06" endPos="481.06" friendlyPos="true">
        <access lane="772812629_0" pos="0.00" length="6.96" friendlyPos="1"/>
        <access lane="772812630#1_0" pos="1.27" length="10.90" friendlyPos="1"/>
        <access lane="772812639_0" pos="4.76" length="14.06" friendlyPos="1"/>
        <access lane="772812640_0" pos="7.46" length="7.25" friendlyPos="1"/>
        <access lane="772812644#6_0" pos="6.75" length="11.18" friendlyPos="1"/>
    </busStop>
    <busStop id="-7215417856" name="Barcelona - Estació de França" lane="-772812649_0" startPos="62.74" endPos="262.74" friendlyPos="true">
        <access lane="772812630#0_0" pos="0.00" length="6.88" friendlyPos="1"/>
        <access lane="772812631#1_0" pos="1.36" length="11.05" friendlyPos="1"/>
        <access lane="772812639_0" pos="5.10" length="7.72" friendlyPos="1"/>
        <access lane="772812644#4_0" pos="2.95" length="12.94" friendlyPos="1"/>
        <access lane="772812644#5_0" pos="0.00" length="11.34" friendlyPos="1"/>
    </busStop>
    <busStop id="-7215417857" name="Barcelona - Estació de França" lane="-216952561_0" startPos="0.00" endPos="200.00" friendlyPos="true">
        <access lane="772812629_0" pos="0.00" length="10.79" friendlyPos="1"/>
        <access lane="772812630#0_0" pos="1.61" length="12.83" friendlyPos="1"/>
        <access lane="772812630#1_0" pos="1.27" length="6.85" friendlyPos="1"/>
        <access lane="772812639_0" pos="4.93" length="7.09" friendlyPos="1"/>
        <access lane="772812644#6_0" pos="2.10" length="11.31" friendlyPos="1"/>
    </busStop>
    <busStop id="-7215417877" name="Barcelona - Estació de França" lane="-217122023_0" startPos="0.00" endPos="200.00" friendlyPos="true">
        <access lane="772812630#0_0" pos="0.00" length="11.01" friendlyPos="1"/>
        <access lane="772812631#0_0" pos="1.65" length="12.98" friendlyPos="1"/>
        <access lane="772812631#1_0" pos="1.36" length="6.92" friendlyPos="1"/>
        <access lane="772812638_0" pos="2.02" length="7.31" friendlyPos="1"/>