<?xml version="1.0" encoding="UTF-8"?>

<!-- generated on 2024-07-01 21:01:44.699768 by osmWebWizard.py v1_19_0+0000-baa66a0f364
<configuration>
    <net-file value="C:\Users\Jaime\Sumo\2024-07-01-21-01-21\osm.net.xml.gz"/>
    <ptlines-file value="C:\Users\Jaime\Sumo\2024-07-01-21-01-21\osm_ptlines.xml"/>
    <ptstops-file value="C:\Users\Jaime\Sumo\2024-07-01-21-01-21\osm_stops.add.xml"/>
    <output-file value="C:\Users\Jaime\Sumo\2024-07-01-21-01-21\osm_pt.rou.xml"/>
    <stopinfos-file value="C:\Users\Jaime\Sumo\2024-07-01-21-01-21\stopinfos.xml"/>
    <routes-file value="C:\Users\Jaime\Sumo\2024-07-01-21-01-21\vehroutes.xml"/>
    <trips-file value="C:\Users\Jaime\Sumo\2024-07-01-21-01-21\trips.trips.xml"/>
    <end value="4000.0"/>
    <min-stops value="0"/>
    <extend-to-fringe value="True"/>
    <random-begin value="True"/>
    <seed value="42"/>
    <ignore-errors value="True"/>
    <vtype-prefix value="pt_"/>
    <verbose value="True"/>
</configuration>
-->

<routes xmlns:xsi="http://www.w3.org/2001/XMLSchema-instance" xsi:noNamespaceSchemaLocation="http://sumo.dlr.de/xsd/routes_file.xsd">
    <vType id="pt_bus" vClass="bus"/>
    <vType id="pt_tram" vClass="tram"/>
    <vType id="pt_train" vClass="rail"/>
    <vType id="pt_subway" vClass="rail_urban"/>
    <vType id="pt_light_rail" vClass="rail_urban"/>
    <vType id="pt_monorail" vClass="rail_urban"/>
    <vType id="pt_trolleybus" vClass="bus"/>
    <vType id="pt_minibus" vClass="bus"/>
    <vType id="pt_share_taxi" vClass="taxi"/>
    <vType id="pt_aerialway" vClass="rail_urban" length="2.5" width="2" personCapacity="4"/>
    <vType id="pt_ferry" vClass="ship"/>
    <route id="pt_bus_100:0" color="201,66,63" edges="126304603#2" >
        <stop busStop="823781719" duration="20" until="40.0"/> <!-- Plaça Catalunya -->
    </route>
    <route id="pt_train_R17:1" color="232,115,8" edges="216952581" >
        <stop busStop="7215417857" duration="20" until="64.0"/> <!-- Barcelona - Estació de França -->
    </route>
    <route id="pt_train_R17:0" color="232,115,8" edges="217122022" >
        <stop busStop="7215417855" duration="20" until="55.0"/> <!-- Barcelona - Estació de França -->
    </route>
    <route id="pt_subway_L6:0" color="114,128,192" edges="363139234" >
        <stop busStop="3673333976" duration="20" until="31.0"/> <!-- Plaça de Catalunya (FGC) -->
    </route>
    <route id="pt_train_34:0" edges="216952581" >
        <stop busStop="7215417857" duration="20" until="64.0"/> <!-- Barcelona - Estació de França -->
    </route>
    <route id="pt_subway_L7:0" color="172,84,20" edges="867668762 867668756 363139235 867668752 867668760 867668775" >
        <stop busStop="3673333977" duration="20" until="31.0"/> <!-- Plaça de Catalunya (FGC) -->
    </route>
    <route id="pt_train_34:1" edges="217122022" >
        <stop busStop="7215417855" duration="20" until="94.0"/> <!-- Barcelona - Estació de França -->
    </route>
    <route id="pt_bus_39:0" color="208,46,38" edges="68506233#0 20042722#1 20475905#2" >
        <stop busStop="6123166500" duration="20" until="36.0"/> <!-- PL Urquinaona - Pau Claris -->
    </route>
    <route id="pt_bus_N40:0" edges="542956873" >
        <stop busStop="1966472090" duration="20" until="48.0"/> <!-- Ronda Universitat - Plaça Catalunya -->
    </route>
    <route id="pt_subway_L7:1" color="172,84,20" edges="867668762" >
        <stop busStop="3673333977" duration="20" until="31.0"/> <!-- Plaça de Catalunya (FGC) -->
    </route>
    <route id="pt_train_R2Sud:0" color="0,100,52" edges="216952581" >
        <stop busStop="7215417857" duration="20" until="64.0"/> <!-- Barcelona - Estació de França -->
    </route>
    <route id="pt_subway_L6:1" color="114,128,192" edges="867668776 867668759 867668757 363139234" >
        <stop busStop="3673333976" duration="20" until="73.0"/> <!-- Plaça de Catalunya (FGC) -->
    </route>
    <route id="pt_bus_N61:0" edges="519375847#1 68506254#2 295263592 -295263587#1 -315739558#3 526129884 295263589#0 295263589#1 295263589#4" >
        <stop busStop="5726021529" duration="20" until="51.0"/> <!-- Rda. Sant Pere - Pl. de Catalunya -->
    </route>
    <route id="pt_train_R1:0" color="68,154,213" edges="385483999 810841348#1" >
        <stop busStop="3888388697" duration="20" until="125.0"/> <!-- Barcelona- Plaça Catalunya -->
    </route>
    <route id="pt_train_R16:0" color="179,4,55" edges="217122022" >
        <stop busStop="7215417855" duration="20" until="55.0"/> <!-- Barcelona - Estació de França -->
    </route>
    <route id="pt_bus_7:0" color="208,46,38" edges="449991617#0 449991617#3 449991617#5 449991617#6 449991617#8 449991617#9 550620361#0 550620361#1 483469233#0 483469233#1 126302004 1235264094#0 237522644#0 237522644#2" >
        <stop busStop="5274072653" duration="20" until="89.0"/> <!-- Gran Via - Balmes -->
    </route>
    <route id="pt_train_R16:1" color="179,4,55" edges="216952581" >
        <stop busStop="7215417857" duration="20" until="64.0"/> <!-- Barcelona - Estació de França -->
    </route>
    <route id="pt_bus_X95:1" color="249,219,79" edges="542956873 68506253#1 68506253#2 532631875 295215809#0 545932590#1 -238326403#0 -185957649#1 918410082#1 12373020#1 12373020#2 12373020#3 12373020#4 12373020#5 243591204#0 243591204#3" >
        <stop busStop="8634928230" duration="20" until="44.0"/> <!-- Rda Universitat - Plaça Catalunya -->
    </route>
    <route id="pt_bus_N41:0" edges="542956873 68506253#1 68506253#2 532631875 295215809#0 545932590#1 -238326403#0 -185957649#1 918410082#1 12373020#1 12373020#2 12373020#3 12373020#4 12373020#5 243591204#0 243591204#3" >
        <stop busStop="1966472090" duration="20" until="48.0"/> <!-- Ronda Universitat - Plaça Catalunya -->
    </route>
    <route id="pt_train_R1:1" color="68,154,213" edges="810224247 385539466#1" >
        <stop busStop="3141961384" duration="20" until="123.0"/> <!-- Barcelona- Plaça Catalunya -->
    </route>
    <route id="pt_bus_141:0" color="208,46,38" edges="237506930#0 243591201#0 243591201#1 243591201#2 237655875#0 237655875#1 121830607#0 121830607#1 121830607#3 121830607#4 -223928337#6 -223928337#5 -223928337#4 -223928337#1 4745021#1 4745021#2 4745021#5 237529472#1 246638748#2" >
        <stop busStop="8097436670" duration="20" until="75.0"/> <!-- Villarroel - Sepúlveda -->
    </route>
    <route id="pt_bus_67:0" color="208,46,38" edges="449991617#0 449991617#3 449991617#5 449991617#6 449991617#8 449991617#9 550620361#0 550620361#1 491443474#0 491443474#2 237522641#0 237522641#1 68506265#1 68506265#3 68506265#4 68506242#0 68506242#1 1214315734 1108368268 1214315735 1108368269#1 126304603#2" >
        <stop busStop="8214234925" duration="20" until="54.0"/> <!-- Balmes - Gran Via -->
    </route>
    <route id="pt_train_R14:0" color="78,83,171" edges="217122022" >
        <stop busStop="7215417855" duration="20" until="55.0"/> <!-- Barcelona - Estació de França -->
    </route>
    <route id="pt_train_R15:0" color="154,131,108" edges="216952581" >
        <stop busStop="7215417857" duration="20" until="64.0"/> <!-- Barcelona - Estació de França -->
    </route>
    <route id="pt_bus_e11.1:0" color="200,0,0" edges="519375848#0 519375847#1 68506254#2 295263592 880144105 8380812#0 8380812#2 20475367#0 542956873" >
        <stop busStop="1966472090" duration="20" until="198.0"/> <!-- Ronda Universitat - Plaça Catalunya -->
    </route>
    <route id="pt_bus_N4:0" color="28,72,131" edges="519375847#1 68506254#2 295263592 -295263587#1 -315739558#3 526129884 295263589#0 295263589#1 295263589#4" >
        <stop busStop="9788442646" duration="20" until="256.0"/> <!-- Pg de Gràcia - Casp -->
    </route>
    <route id="pt_subway_L4:0" color="250,183,10" edges="871431262" >
        <stop busStop="3397396367" duration="20" until="76.0"/> <!-- Barceloneta -->
        <stop busStop="3397396612" duration="20" until="150.0"/> <!-- Jaume I -->
        <stop busStop="3397396674" duration="20" until="221.0"/> <!-- Urquinaona -->
        <stop busStop="3397396637" duration="20" until="289.0"/> <!-- Passeig de Gràcia -->
    </route>
    <route id="pt_train_R4:0" color="255,140,0" edges="810224247 385539466#1" >
        <stop busStop="3141961384" duration="20" until="157.0"/> <!-- Barcelona- Plaça Catalunya -->
    </route>
    <route id="pt_train_R3:0" color="255,19,26" edges="385483999 810841348#1" >
        <stop busStop="3888388697" duration="20" until="125.0"/> <!-- Barcelona- Plaça Catalunya -->
    </route>
    <route id="pt_train_R16:3" color="179,4,55" edges="216952581" >
        <stop busStop="7215417857" duration="20" until="64.0"/> <!-- Barcelona - Estació de França -->
    </route>
    <route id="pt_bus_e11.2:0" color="200,0,0" edges="519375848#0 519375847#1 68506254#2 295263592 880144105 8380812#0 8380812#2 20475367#0 542956873" >
        <stop busStop="1966472090" duration="20" until="247.0"/> <!-- Ronda Universitat - Plaça Catalunya -->
    </route>
    <route id="pt_train_R2Sud:1" color="0,100,52" edges="217122022" >
        <stop busStop="7215417855" duration="20" until="55.0"/> <!-- Barcelona - Estació de França -->
    </route>
    <route id="pt_bus_N4:1" color="28,72,131" edges="126301387#0 549518619 315739558#1 295263587#0 880144105 8380812#0 8380812#2 20475367#0 542956873 68506265#1 68506265#3 68506265#4 68506242#0 68506242#1 1214315734 1108368268 1214315735 1108368269#1 20355312#1 545937949#0 140001504#2 140001504#3 545937948#0 20475905#2" >
        <stop busStop="5609793224" duration="20" until="35.0"/> <!-- Pg. de Gràcia - Gran Via Corts Catalanes -->
    </route>
    <route id="pt_subway_L2:0" color="153,47,156" edges="549603120" >
        <stop busStop="3397396636" duration="20" until="46.0"/> <!-- Paral·lel -->
        <stop busStop="3397396654" duration="20" until="120.0"/> <!-- Sant Antoni -->
        <stop busStop="3397396672" duration="20" until="186.0"/> <!-- Universitat -->
        <stop busStop="5314633543" duration="20" until="258.0"/> <!-- Passeig de Gràcia -->
        <stop busStop="3397396665" duration="20" until="337.0"/> <!-- Tetuan -->
    </route>
    <route id="pt_bus_N11:1" color="28,72,131" edges="519375847#1 68506254#2 295263592 880144105 8380812#0 8380812#2" >
        <stop busStop="2989714854" duration="20" until="111.0"/> <!-- Pl. Catalunya - Pg. de Gràcia -->
    </route>
    <route id="pt_train_R12:0" color="255,221,0" edges="810224247 385539466#1" >
        <stop busStop="3141961384" duration="20" until="191.0"/> <!-- Barcelona- Plaça Catalunya -->
    </route>
    <route id="pt_bus_N5:1" color="28,72,131" edges="449991617#0 449991617#3 449991617#5 449991617#6 449991617#8 449991617#9 550620361#0 550620361#1 491443474#0 491443474#2 237522641#0 237522641#1 68506265#1 68506265#3 68506265#4 68506242#0 68506242#1 1214315734 1108368268 1214315735 1108368269#1 20355312#1 545937949#0 295263590" >
        <stop busStop="8214234925" duration="20" until="64.0"/> <!-- Balmes - Gran Via -->
    </route>
    <route id="pt_train_S2:0" edges="866397101 866397101 867668775" >
        <stop busStop="8087619815" duration="20" until="31.0"/> <!-- Plaça de Catalunya (FGC) -->
    </route>
    <route id="pt_subway_L4:1" color="250,183,10" edges="866378042#0 866378042#1 866393905#1" >
        <stop busStop="462256418" duration="20" until="49.0"/> <!-- Passeig de Gràcia -->
        <stop busStop="462256414" duration="20" until="117.0"/> <!-- Urquinaona -->
        <stop busStop="462256413" duration="20" until="188.0"/> <!-- Jaume I -->
        <stop busStop="462256384" duration="20" until="263.0"/> <!-- Barceloneta -->
    </route>
    <route id="pt_train_R4:1" color="255,140,0" edges="385483999 810841348#1" >
        <stop busStop="3888388697" duration="20" until="159.0"/> <!-- Barcelona- Plaça Catalunya -->
    </route>
    <route id="pt_bus_19:0" color="208,46,38" edges="-126301387#1" >
        <stop busStop="-5760480311" duration="20" until="40.0"/> <!-- Pg. de Gràcia - Ronda de Sant Pere -->
    </route>
    <route id="pt_train_R13:1" color="237,56,150" edges="216952581" >
        <stop busStop="7215417857" duration="20" until="64.0"/> <!-- Barcelona - Estació de França -->
    </route>
    <route id="pt_bus_N9:0" color="28,72,131" edges="905380775 537787889#2 -893745919#1 -1235276476 -1235264093#2 8380873#0 8380873#1 237522644#0 237522644#2" >
        <stop busStop="8372241999" duration="20" until="38.0"/> <!-- Pl Catalunya - FNAC -->
    </route>
    <route id="pt_bus_B20:0" color="249,219,79" edges="546184103#0 237787045#0" >
        <stop busStop="5278388752" duration="20" until="33.0"/> <!-- Passeig Lluís Companys - Jutjats -->
    </route>
    <route id="pt_train_R16:2" color="179,4,55" edges="217122022" >
        <stop busStop="7215417855" duration="20" until="55.0"/> <!-- Barcelona - Estació de França -->
    </route>
    <route id="pt_bus_D20:0" color="136,41,124" edges="359739475#0 359739475#2 359739475#4 359739475#7 785372924#1 287856806#0 237566151#1 237566153#3 237566153#4 237715987#1 237715987#3 237725961 237715966#0 18512190#0 18512190#2 18512190#3 -423232176#2 -4079513#7 -4079513#4 -4079513#2 -4079513#1 -4079513#0" >
        <stop busStop="2610196515" duration="20" until="66.0"/> <!-- Pg. Joan de Borbó -->
    </route>
    <route id="pt_bus_N0:0" color="28,72,131" edges="283764984#0 293858826#1 237566153#3 237566153#4 237715987#1 237715987#3 237725961 237715966#0 18512190#0 18512190#2 18512190#3 -423232176#2 -4079513#7 -4079513#4 -4079513#2 -4079513#1 -4079513#0" >
    </route>
    <route id="pt_train_S1:0" color="255,165,0" edges="866397102#0 866397102#0 866397102#0" >
        <stop busStop="8087619814" duration="20" until="31.0"/> <!-- Plaça de Catalunya (FGC) -->
    </route>
    <route id="pt_bus_H12:0" color="40,53,131" edges="1110435370#0 1110435374 673080416 545747641 1110435373 237506948#2 550620361#0 550620361#1 491443474#0 491443474#2 237522641#0 237522641#1 68506253#1 68506253#2 532631875 295215809#0 545932590#1 532570624#0 532570624#2 449991649#0 449991649#1 449991649#2 526210689#0 526210689#1 237914534#0 237914534#2 237914534#4 237914534#5 237914534#6 545747639#1 545747635#2" >
        <stop busStop="5274384898" duration="20" until="85.0"/> <!-- Gran Via - Balmes -->
    </route>
    <route id="pt_train_R3:1" color="255,19,26" edges="810224247 385539466#1" >
        <stop busStop="3141961384" duration="20" until="225.0"/> <!-- Barcelona- Plaça Catalunya -->
    </route>
    <route id="pt_bus_N0:1" color="28,72,131" edges="4079513#0 4079513#1 4079513#2 4079513#3 4079513#6 423232176#0 18513247#2 18513247#5 18513247#6 514849724 237715986#0 237715986#1 237715986#2 237715986#3 22588050#0 22588050#1 882828677 246640823#0 518529171#0 518529171#2 237566147#1 293858825" >
        <stop busStop="5609791813" duration="20" until="64.0"/> <!-- Moll de la Fusta -->
    </route>
    <route id="pt_bus_N9:1" color="28,72,131" edges="449991617#0 449991617#3 449991617#5 449991617#6 449991617#8 449991617#9 550620361#0 550620361#1 491443474#0 491443474#2 237522641#0 237522641#1 68506265#1 68506265#3 11680392#0 11680392#1 11680392#2 905380775" >
        <stop busStop="8214234925" duration="20" until="104.0"/> <!-- Balmes - Gran Via -->
    </route>
    <route id="pt_train_R14:1" color="78,83,171" edges="216952581" >
        <stop busStop="7215417857" duration="20" until="64.0"/> <!-- Barcelona - Estació de França -->
    </route>
    <route id="pt_train_R12:1" color="255,221,0" edges="385483999 810841348#1" >
        <stop busStop="3888388697" duration="20" until="193.0"/> <!-- Barcelona- Plaça Catalunya -->
    </route>
    <route id="pt_bus_D20:1" color="136,41,124" edges="4079513#0 4079513#1 4079513#2 4079513#3 4079513#6 423232176#0 18513247#2 18513247#5 18513247#6 514849724 237715986#0 237715986#1 237715986#2 237715986#3 22588050#0 22588050#1 882828677 246640823#0 237790232#1 237790232#2 785372925#1 291731094#2 291731094#4 291731094#6" >
        <stop busStop="5609791814" duration="20" until="35.0"/> <!-- Portal de la Pau -->
    </route>
    <route id="pt_bus_22:1" color="208,46,38" edges="519375848#0 519375847#1" >
        <stop busStop="8248379225" duration="20" until="79.0"/> <!-- Ronda Sant Pere - Pg de Gràcia -->
    </route>
    <route id="pt_bus_101:0" color="48,95,146" edges="295263590 449991617#0 449991617#3 449991617#5 449991617#6 449991617#8 449991617#9 550620361#0 550620361#1 491443474#0 491443474#2 237522641#0 237522641#1 68506265#1 68506265#3 68506265#4 68506242#0 68506242#1 1214315734 1108368268 1214315735 1108368269#1 20355312#1 545937949#0" >
        <stop busStop="5375631708" duration="20" until="349.0"/> <!-- Eixamplle -->
    </route>
    <route id="pt_bus_V11:0" color="119,176,69" edges="237649293#0 237649293#1 1223827918#2 246638755#0 246638755#2 488501166 223928337#2 223928337#5 223928337#6 223928339#0 223928339#1 223928339#2 223928339#4 237655878#0" >
    </route>
    <route id="pt_train_R13:0" color="237,56,150" edges="217122022" >
        <stop busStop="7215417855" duration="20" until="55.0"/> <!-- Barcelona - Estació de França -->
    </route>
    <route id="pt_subway_L2:1" color="153,47,156" edges="447856553" >
        <stop busStop="462295962" duration="20" until="46.0"/> <!-- Monumental -->
        <stop busStop="462295955" duration="20" until="119.0"/> <!-- Tetuan -->
        <stop busStop="5314633722" duration="20" until="198.0"/> <!-- Passeig de Gràcia -->
        <stop busStop="4454100050" duration="20" until="269.0"/> <!-- Universitat -->
        <stop busStop="462295947" duration="20" until="335.0"/> <!-- Sant Antoni -->
        <stop busStop="3699659474" duration="20" until="409.0"/> <!-- Paral·lel -->
    </route>
    <route id="pt_bus_N5:0" color="28,72,131" edges="295263590 295263591#0 1065887038 -295263587#1 -315739558#3 526129884 295263589#0 295263589#1 295263589#4" >
        <stop busStop="5603009322" duration="20" until="103.0"/> <!-- Pl. de Catalunya - Ronda Sant Pere -->
    </route>
    <route id="pt_bus_19:1" color="208,46,38" edges="519375847#1 68506254#2 295263592 -295263587#1 -315739558#3 -549518619 -126301387#1" >
        <stop busStop="-5760480311" duration="20" until="155.0"/> <!-- Pg. de Gràcia - Ronda de Sant Pere -->
    </route>
    <route id="pt_train_RG1:0" color="0,115,206" edges="810224247 385539466#1" >
        <stop busStop="3141961384" duration="20" until="259.0"/> <!-- Barcelona- Plaça Catalunya -->
    </route>
    <route id="pt_bus_121:0" color="208,46,38" edges="237529472#1 246638748#2" >
        <stop busStop="2536484166" duration="20" until="47.0"/> <!-- Mercat de Sant Antoni -->
    </route>
    <route id="pt_bus_63:1" color="208,46,38" edges="449991617#0 449991617#3 449991617#5 449991617#6 449991617#8 449991617#9 550620361#0 550620361#1 491443474#0 491443474#2 237522641#0 237522641#1" >
        <stop busStop="8214234925" duration="20" until="60.0"/> <!-- Balmes - Gran Via -->
    </route>
    <route id="pt_bus_24:1" color="208,46,38" edges="295268540#0 295268540#1 295268540#4 295268540#6 295263588 8380812#0 8380812#2" >
        <stop busStop="2989714853" duration="20" until="144.0"/> <!-- Pl.de Catalunya - Rambla Catalunya -->
    </route>
    <route id="pt_bus_N41:1" edges="532696001#0 532696001#1 545718433#2 532696011#0 532696011#1 532696011#2 532696011#4 328020781#0 328020781#1 545030298 237525159#0 237525159#1 237525159#3 491443474#0 491443474#2 237522643#0 237522643#1 237522643#2 237522643#4 1235264095#2 1235264093#1 962829744 893745919#0 20475367#0 542956873" >
        <stop busStop="1966472090" duration="20" until="580.0"/> <!-- Ronda Universitat - Plaça Catalunya -->
    </route>
    <route id="pt_bus_121:1" color="208,46,38" edges="237649293#0 237649293#1 1223827918#2 246638755#0 246638755#2 4745021#1 4745021#2 4745021#5 237529472#1" >
    </route>
    <route id="pt_subway_L1:1" color="227,54,56" edges="810841352#0 810841352#1" >
        <stop busStop="3397396360" duration="20" until="57.0"/> <!-- Arc de Triomf -->
        <stop busStop="4449876855" duration="20" until="127.0"/> <!-- Urquinaona -->
        <stop busStop="3397396380" duration="20" until="192.0"/> <!-- Catalunya -->
        <stop busStop="3397396671" duration="20" until="257.0"/> <!-- Universitat -->
        <stop busStop="3397396673" duration="20" until="326.0"/> <!-- Urgell -->
        <stop busStop="3397396649" duration="20" until="392.0"/> <!-- Rocafort -->
        <stop busStop="3397396596" duration="20" until="457.0"/> <!-- Espanya -->
    </route>
    <route id="pt_bus_22:0" color="208,46,38" edges="519375847#1 68506254#2 295263592 -295263587#1 -315739558#3 526129884 295263589#0 295263589#1 295263589#4" >
        <stop busStop="8248379225" duration="20" until="49.0"/> <!-- Ronda Sant Pere - Pg de Gràcia -->
    </route>
    <route id="pt_bus_X95:0" color="249,219,79" edges="532696001#0 532696001#1 545718433#2 532696011#0 532696011#1 532696011#2 532696011#4 328020781#0 328020781#1 545030298 237525159#0 237525159#1 237525159#3 491443474#0 491443474#2 237522643#0 237522643#1 237522643#2 237522643#4 1235264095#2 1235264093#1 962829744 893745919#0 20475367#0 542956873" >
        <stop busStop="5760480286" duration="20" until="46.0"/> <!-- Gran Via - Muntaner -->
    </route>
    <route id="pt_bus_N20:0" color="28,72,131" edges="519375847#1 68506254#2 295263592 880144105 8380812#0 8380812#2 20475367#0 542956873 68506253#1 68506253#2 532631875 295215809#0 545932590#1 -238326403#0 -185957649#1 918410082#1 12373020#1 12373020#2 12373020#3 12373020#4 12373020#5 243591204#0 243591204#3" >
        <stop busStop="2989714853" duration="20" until="165.0"/> <!-- Pl.de Catalunya - Rambla Catalunya -->
    </route>
    <route id="pt_train_R15:1" color="154,131,108" edges="217122022" >
        <stop busStop="7215417855" duration="20" until="55.0"/> <!-- Barcelona - Estació de França -->
    </route>
    <route id="pt_bus_N81:0" edges="519375848#0 519375847#1" >
        <stop busStop="5364626633" duration="20" until="56.0"/> <!-- Ronda Sant Pere - Pl Urquinaona -->
    </route>
    <route id="pt_bus_V11:1" color="119,176,69" edges="237506930#0 243591201#0 243591201#1 243591201#2 237655875#0 237655875#1 121830607#0 121830607#1 121830607#3 121830607#4 -223928337#6 -223928337#5 -223928337#4 -223928337#1 4745021#1 4745021#2 4745021#5 237529472#1 246638748#2" >
        <stop busStop="8097436670" duration="20" until="63.0"/> <!-- Villarroel - Sepúlveda -->
    </route>
    <route id="pt_bus_N7:0" color="28,72,131" edges="449991617#0 449991617#3 449991617#5 449991617#6 449991617#8 449991617#9 550620361#0 550620361#1 491443474#0 491443474#2 237522641#0 237522641#1 68506265#1 68506265#3 68506265#4 68506242#0 68506242#1 1214315734 1108368268 1214315735 1108368269#1 20355312#1 545937949#0 295263590 295263591#0 1065887038 -295263587#1 -315739558#3 526129884 295263589#0 295263589#1 295263589#4" >
        <stop busStop="8214234925" duration="20" until="84.0"/> <!-- Balmes - Gran Via -->
    </route>
    <route id="pt_bus_24:0" color="208,46,38" edges="8380812#2 -893745919#1 -1235276476 -1235264093#2 8380873#0 8380873#1 237522644#0 237522644#2" >
        <stop busStop="2989714853" duration="20" until="45.0"/> <!-- Pl.de Catalunya - Rambla Catalunya -->
    </route>
    <route id="pt_subway_L1:0" color="227,54,56" edges="810841346" >
        <stop busStop="1417675798" duration="20" until="46.0"/> <!-- Espanya -->
        <stop busStop="463164954" duration="20" until="112.0"/> <!-- Rocafort -->
        <stop busStop="463164953" duration="20" until="179.0"/> <!-- Urgell -->
        <stop busStop="462295951" duration="20" until="247.0"/> <!-- Universitat -->
        <stop busStop="4454100049" duration="20" until="313.0"/> <!-- Catalunya -->
        <stop busStop="4449876854" duration="20" until="378.0"/> <!-- Urquinaona -->
        <stop busStop="463164952" duration="20" until="448.0"/> <!-- Arc de Triomf -->
        <stop busStop="463164950" duration="20" until="516.0"/> <!-- Marina -->
        <stop busStop="462685387" duration="20" until="594.0"/> <!-- Glòries -->
    </route>
    <route id="pt_bus_N1:1" color="28,72,131" edges="1110435370#0 1110435374 673080416 545747641 1110435373 237506948#2 550620361#0 550620361#1 491443474#0 491443474#2 237522641#0 237522641#1 68506253#1 68506253#2 532631875 295215809#0 545932590#1 532570624#0 532570624#2 449991649#0 449991649#1 449991649#2 526210689#0 526210689#1 237914534#0 237914534#2 237914534#4 237914534#5 237914534#6 545747639#1 545747635#2" >
        <stop busStop="5274384898" duration="20" until="86.0"/> <!-- Gran Via - Balmes -->
    </route>
    <route id="pt_bus_N2:1" color="28,72,131" edges="1110435370#0 1110435374 673080416 545747641 1110435373 237506948#2 550620361#0 550620361#1 491443474#0 491443474#2 237522641#0 237522641#1 68506253#1 68506253#2 532631875 295215809#0 545932590#1 532570624#0 532570624#2 449991649#0 449991649#1 449991649#2 526210689#0 526210689#1 237914534#0 237914534#2 237914534#4 237914534#5 237914534#6 545747639#1 545747635#2" >
        <stop busStop="5274384898" duration="20" until="117.0"/> <!-- Gran Via - Balmes -->
    </route>
    <route id="pt_bus_B25:0" color="249,219,79" edges="546184103#0 237787045#0" >
        <stop busStop="5278388752" duration="20" until="33.0"/> <!-- Passeig Lluís Companys - Jutjats -->
    </route>
    <route id="pt_bus_X1:0" color="black" edges="532696001#0 532696001#1 545718433#2 532696011#0 532696011#1 532696011#2 532696011#4 328020781#0 328020781#1 545030298 237525159#0 237525159#1 237525159#3 483469233#0 483469233#1 126302005 673080418#0 316789524#0 316789524#1" >
        <stop busStop="1474608404" duration="20" until="305.0"/> <!-- Pl Universitat -->
    </route>
    <route id="pt_bus_V17:0" color="119,176,69" edges="-4752296#6 -4752296#5 -4752296#4 -4752296#3 -309051293#2 251073272#2 251073272#3 251073272#5 251073272#6 18510804#0 237725937#0 237725937#2 237725937#3 237725937#5 237725937#9 237725937#10 237725937#11 237725937#13 237725937#14 450574613 9412955#0 9412955#1 9412955#2 9412955#3 307054781#0 307054781#2 307054781#3 307054781#5 307054786#0 307054786#1 237787045#0" >
        <stop busStop="-30317892" duration="20" until="51.0"/> <!-- Port Vell -->
    </route>
    <route id="pt_bus_H14:0" color="40,53,131" edges="4079513#0 4079513#1 4079513#2 4079513#3 4079513#6 423232176#0 18513247#2 18513247#5 18513247#6 514849724 18510804#0 237725937#0 237725937#2 237725937#3 237725937#5 237725937#9 237725937#10 237725937#11 237725937#13 237725937#14 450574613 9412955#0 9412955#1 9412955#2 9412955#3 307054781#0 307054781#2 307054781#3 307054781#5 307054786#0 307054786#1 237787045#0" >
    </route>
    <route id="pt_bus_e11.1:1" color="200,0,0" edges="542956873 68506253#1 68506253#2 532631875 295215809#0 -44027589#2 8380840#1 8380840#2 237525159#0 237525159#1 237525159#3 483469233#0 483469233#1 126302004 1235264094#0 237522644#0 237522644#2" >
        <stop busStop="1966472090" duration="20" until="80.0"/> <!-- Ronda Universitat - Plaça Catalunya -->
    </route>
    <route id="pt_bus_H12:1" color="40,53,131" edges="532696001#0 532696001#1 545718433#2 532696011#0 532696011#1 532696011#2 532696011#4 328020781#0 328020781#1 545030298 237525159#0 237525159#1 237525159#3 483469233#0 483469233#1 126302004 1235264094#0 237522644#0 237522644#2" >
        <stop busStop="5760480286" duration="20" until="54.0"/> <!-- Gran Via - Muntaner -->
    </route>
    <route id="pt_bus_H14:1" color="40,53,131" edges="134547872#0 312564225#0 312564225#2 312564227 450581323 1089649276 22689846#0 22689846#2 353421099#0 353421099#1 353421099#2 307054785#0 307054785#1 307054785#3 307054785#4 307054785#5 307054785#6 307054785#7 1108370775#0 1108370775#1 1089649278 22658031#0 22658031#2 22658031#6 22658031#7 22658031#8 22658031#11 237715966#0 18512190#0 18512190#2 18512190#3 -423232176#2 -4079513#7 -4079513#4 -4079513#2 -4079513#1 -4079513#0" >
        <stop busStop="8143303452" duration="20" until="152.0"/> <!-- Pg Picasso - Princesa -->
    </route>
    <route id="pt_bus_C6:1" edges="519375848#0 519375847#1 68506254#2 295263592 880144105 8380812#0 8380812#2 20475367#0 542956873" >
        <stop busStop="1966472090" duration="20" until="235.0"/> <!-- Ronda Universitat - Plaça Catalunya -->
    </route>
    <route id="pt_bus_47:0" color="208,46,38" edges="359739475#0 359739475#2 359739475#4 359739475#7 785372924#1 287856806#0 237566151#1 237566153#3 237566153#4 237715987#1 237715987#3 237725937#0 237725937#2 237725937#3 237725937#5 237725937#9 237725937#10 237725937#11 237725937#13 237725937#14 450574613 9412955#0 9412955#1 9412955#2 9412955#3 307054781#0 307054781#2 307054781#3 307054781#5 307054786#0 307054786#1 237787045#0" >
        <stop busStop="2610196515" duration="20" until="74.0"/> <!-- Pg. Joan de Borbó -->
    </route>
    <route id="pt_bus_V17:1" color="119,176,69" edges="519375848#0 20042722#1 1213170281#1 1213170282 1213170280#0 1213170280#1 1213170279 423231444#0 423231444#1 423231444#4 423231444#5 423231444#7 1213171871#1 1223432482 1206387470#0 1206387470#1 903747292#3 884705757#2 423232178#0 423232178#3 423232178#6 237725967#0 237725967#2 68506238#2 309051293#0 4752296#2 4752296#4 4752296#5 4752296#6" >
        <stop busStop="8220384273" duration="20" until="71.0"/> <!-- Urquinaona -->
    </route>
    <route id="pt_bus_N14:0" color="28,72,131" edges="542956873 68506253#1 68506253#2 532631875 295215809#0 545932590#1 -238326403#0 -185957649#1 918410082#1 12373020#1 12373020#2 12373020#3 12373020#4 12373020#5 243591204#0 243591204#3" >
        <stop busStop="8634928230" duration="20" until="43.0"/> <!-- Rda Universitat - Plaça Catalunya -->
        <stop busStop="5609793223" duration="20" until="100.0"/> <!-- Ronda Universitat - Pl. Universitat -->
    </route>
    <route id="pt_bus_e15.1:1" color="0,147,131" edges="542956873 68506253#1 68506253#2 532631875 295215809#0 545932590#1 -238326403#0 -185957649#1 918410082#1 12373020#1 12373020#2 12373020#3 12373020#4 12373020#5 243591204#0 243591204#3" >