<?xml version="1.0" encoding="UTF-8"?>

<!-- generated on 2024-04-18 17:40:18.173064 by osmWebWizard.py v1_19_0+0000-baa66a0f364
<configuration>
    <net-file value="C:\Users\Jaime\Sumo\2024-04-18-17-37-51\osm.net.xml.gz"/>
    <ptlines-file value="C:\Users\Jaime\Sumo\2024-04-18-17-37-51\osm_ptlines.xml"/>
    <ptstops-file value="C:\Users\Jaime\Sumo\2024-04-18-17-37-51\osm_stops.add.xml"/>
    <output-file value="C:\Users\Jaime\Sumo\2024-04-18-17-37-51\osm_pt.rou.xml"/>
    <stopinfos-file value="C:\Users\Jaime\Sumo\2024-04-18-17-37-51\stopinfos.xml"/>
    <routes-file value="C:\Users\Jaime\Sumo\2024-04-18-17-37-51\vehroutes.xml"/>
    <trips-file value="C:\Users\Jaime\Sumo\2024-04-18-17-37-51\trips.trips.xml"/>
    <min-stops value="0"/>
    <extend-to-fringe value="True"/>
    <random-begin value="True"/>
    <seed value="42"/>
    <ignore-errors value="True"/>
    <vtype-prefix value="pt_"/>
    <verbose value="True"/>
</configuration>
-->

<routes xmlns:xsi="http://www.w3.org/2001/XMLSchema-instance" xsi:noNamespaceSchemaLocation="http://sumo.dlr.de/xsd/routes_file.xsd">
    <vType id="pt_bus" vClass="bus"/>
    <vType id="pt_tram" vClass="tram"/>
    <vType id="pt_train" vClass="rail"/>
    <vType id="pt_subway" vClass="rail_urban"/>
    <vType id="pt_light_rail" vClass="rail_urban"/>
    <vType id="pt_monorail" vClass="rail_urban"/>
    <vType id="pt_trolleybus" vClass="bus"/>
    <vType id="pt_minibus" vClass="bus"/>
    <vType id="pt_share_taxi" vClass="taxi"/>
    <vType id="pt_aerialway" vClass="rail_urban" length="2.5" width="2" personCapacity="4"/>
    <vType id="pt_ferry" vClass="ship"/>
    <route id="pt_train_AVE:0" edges="772266520#2" >
        <stop busStop="1118396324@13280819" duration="20" until="31.0"/> <!-- Barcelona - Sants -->
    </route>
    <route id="pt_train_AVE:2" edges="772266520#2" >
        <stop busStop="1118396324@13280819" duration="20" until="31.0"/> <!-- Barcelona - Sants -->
    </route>
    <route id="pt_train_Ouigo:3" color="229,10,112" edges="772266511" >
        <stop busStop="1305698370" duration="20" until="53.0"/> <!-- Barcelona - Sants -->
    </route>
    <route id="pt_bus_X43:0" color="249,219,79" edges="862748475 558313141#1 449751441#0 449751441#1 449751441#2 -129169441 -544243183" >
        <stop busStop="8037346270" duration="20" until="41.0"/> <!-- Flos i Calcat - Martí i Julià -->
    </route>
    <route id="pt_subway_L8:0" color="226,122,175" edges="1177980248" >
        <stop busStop="3377296749" duration="20" until="31.0"/> <!-- Plaça Espanya -->
    </route>
    <route id="pt_train_Iryo:1" color="red" edges="772266520#2" >
        <stop busStop="1118396324@13280819" duration="20" until="31.0"/> <!-- Barcelona - Sants -->
    </route>
    <route id="pt_train_Ouigo:4" color="229,10,112" edges="772266511" >
        <stop busStop="1305698370" duration="20" until="53.0"/> <!-- Barcelona - Sants -->
    </route>
    <route id="pt_bus_X43:1" color="249,219,79" edges="-863629113 -558302442#0 -864123947#1 -864123947#0 862748475" >
        <stop busStop="8037346270" duration="20" until="116.0"/> <!-- Flos i Calcat - Martí i Julià -->
    </route>
    <route id="pt_train_Iryo:3" color="red" edges="772266520#2" >
        <stop busStop="1118396324@13280819" duration="20" until="31.0"/> <!-- Barcelona - Sants -->
    </route>
    <route id="pt_bus_X70:0" color="249,219,79" edges="770048769#0 1246312059 404402531 1137827993#2 245676679#0 208708606 1104592109 208708602 245672925#0 1245524404 22650940#0 22650940#2" >
        <stop busStop="1966516541" duration="20" until="158.0"/> <!-- Plaça Espanya - FGC -->
    </route>
    <route id="pt_train_Iryo:4" color="red" edges="772266520#2" >
        <stop busStop="1118396324@13280819" duration="20" until="31.0"/> <!-- Barcelona - Sants -->
    </route>
    <route id="pt_bus_N40:0" edges="542956873" >
        <stop busStop="1966472090" duration="20" until="48.0"/> <!-- Ronda Universitat - Plaça Catalunya -->
    </route>
    <route id="pt_bus_X80:0" color="249,219,79" edges="770048769#0 1246312059 404402531 1137827993#2 245676679#0 208708606 1104592109 208708602 245672925#0 1245524404 22650940#0 22650940#2" >
        <stop busStop="1966516541" duration="20" until="187.0"/> <!-- Plaça Espanya - FGC -->
    </route>
    <route id="pt_train_Ouigo:5" color="229,10,112" edges="772266511" >
        <stop busStop="1305698370" duration="20" until="53.0"/> <!-- Barcelona - Sants -->
    </route>
    <route id="pt_subway_L8:1" color="226,122,175" edges="1177980249" >
        <stop busStop="3398928332" duration="20" until="31.0"/> <!-- Plaça Espanya -->
    </route>
    <route id="pt_bus_62:0" color="208,46,38" edges="94765579#0 238179136#0 238179136#1" >
        <stop busStop="8279041072" duration="20" until="34.0"/> <!-- Meridiana - Aragó -->
    </route>
    <route id="pt_bus_X97:0" color="249,219,79" edges="-863629113 -558302442#0 -864123947#1 -864123947#0 862748475 558313141#1 449751441#0 449751441#1 449751441#2 -129169441 -544243183" >
        <stop busStop="-5341631256" duration="20" until="182.0"/> <!-- Diagonal - Numància -->
    </route>
    <route id="pt_bus_X86:1" color="249,219,79" edges="770048769#0 1246312059 404402531 1137827993#2 245676679#0 208708606 1104592109 208708602 245672925#0 1245524404 22650940#0 22650940#2" >
        <stop busStop="1966516541" duration="20" until="220.0"/> <!-- Plaça Espanya - FGC -->
    </route>
    <route id="pt_bus_123:0" color="208,46,38" edges="-32429563#2 918365463 -680884121#0 -237506956#1 -237506956#0 -237506957#1 -237506957#0 -139259333#1" >
        <stop busStop="-8168365826" duration="20" until="41.0"/> <!-- Pg Sant Gervasi - Pl Bonanova -->
    </route>
    <route id="pt_train_S3:1" color="54,163,144" edges="1177980249" >
        <stop busStop="3398928332" duration="20" until="31.0"/> <!-- Plaça Espanya -->
    </route>
    <route id="pt_bus_89:1" color="249,219,79" edges="185961564#0 185961564#3 185961564#6 880513897#2 880513897#3 880513897#6 880513897#8 880513897#9" >
        <stop busStop="5603009324" duration="20" until="70.0"/> <!-- Paral·lel - Drassanes -->
    </route>
    <route id="pt_bus_X70:1" color="249,219,79" edges="545715327#0 545715327#2 245676677 208708603 1246312059 4787707 448563711 532289328#0 532289328#2 448563710 532088856#0 237529468#1 514849726#1 514849726#3 4750707#0 4750707#1 4750707#2" >
        <stop busStop="8032746332" duration="20" until="138.0"/> <!-- Pl. Espanya - Paral·lel -->
    </route>
    <route id="pt_bus_X80:1" color="249,219,79" edges="545715327#0 545715327#2 245676677 208708603 1246312059 4787707 448563711 532289328#0 532289328#2 448563710 532088856#0 237529468#1 514849726#1 514849726#3 4750707#0 4750707#1 4750707#2" >
        <stop busStop="8032746332" duration="20" until="147.0"/> <!-- Pl. Espanya - Paral·lel -->
    </route>
    <route id="pt_bus_X84:0" color="249,219,79" edges="-863629113 -558302442#0 -864123947#1 -864123947#0 862748475 558313141#1 449751441#0 449751441#1 449751441#2 -129169441 -544243183" >
        <stop busStop="-5341631256" duration="20" until="209.0"/> <!-- Diagonal - Numància -->
    </route>
    <route id="pt_train_S8:1" color="58,188,220" edges="1177980249" >
        <stop busStop="3398928332" duration="20" until="31.0"/> <!-- Plaça Espanya -->
    </route>
    <route id="pt_train_Ouigo:0" color="229,10,112" edges="656070998 656071004 998479288 772266511" >
        <stop busStop="1305698370" duration="20" until="238.0"/> <!-- Barcelona - Sants -->
    </route>
    <route id="pt_bus_X79:1" color="249,219,79" edges="544243184#0 129169441 175002094#0 175002094#1 175002094#2 449606869#0 449606869#1 449606869#2 449606869#3 254329359#1" >
        <stop busStop="5343770280" duration="20" until="204.0"/> <!-- Diagonal - L'Illa Diagonal -->
    </route>
    <route id="pt_bus_89:0" color="249,219,79" edges="867009429 86772200#3 86772200#5 86772200#6 827052043#0 827052043#1 827052043#2 827052043#3 827052043#7 880513895#2 880513895#3 880513895#6 880513895#9" >
        <stop busStop="5609791818" duration="20" until="40.0"/> <!-- Paral·lel - Vila i Vilà -->
    </route>
    <route id="pt_bus_X30:0" color="249,219,79" edges="254329359#1 862197867#0 862197868#0 862197868#1 449751440#0 449751440#1 449751440#2 -283778455#2 -283778455#1 -283778455#0 -129169441 -544243183" >
        <stop busStop="8033328937" duration="20" until="45.0"/> <!-- Pau Romeva - Av. Diagonal -->
    </route>
    <route id="pt_bus_L72:0" color="249,219,79" edges="916317130 558584001#1 457712220#0 457712220#4 546184106#0 1137827992#0 1137827992#1 309183789#0 309183789#1 1137827995 245676679#0 208708606 1104592109 208708602 245672925#0 1245524404 22650940#0 22650940#2" >
        <stop busStop="8066147073" duration="20" until="39.0"/> <!-- Av. Paral·lel - Pl. Espanya -->
    </route>
    <route id="pt_bus_N0:0" color="28,72,131" edges="4079520#2" >
        <stop busStop="21638918" duration="20" until="36.0"/> <!-- Pg. de Colom-Pl. Portal de la Pau -->
    </route>
    <route id="pt_train_S4:0" color="162,94,35" edges="1177980249" >
        <stop busStop="3398928332" duration="20" until="31.0"/> <!-- Plaça Espanya -->
    </route>
    <route id="pt_bus_X83:0" color="249,219,79" edges="-863629113 -558302442#0 -864123947#1 -864123947#0 862748475 558313141#1 449751441#0 449751441#1 449751441#2 -129169441 -544243183" >
        <stop busStop="-5341631256" duration="20" until="199.0"/> <!-- Diagonal - Numància -->
    </route>
    <route id="pt_bus_L72:1" color="249,219,79" edges="545715327#0 545715327#2 245676677 208708603 1246312059 4787707 448563711 532289328#0 532289328#2 448563710" >
        <stop busStop="8032746332" duration="20" until="169.0"/> <!-- Pl. Espanya - Paral·lel -->
    </route>
    <route id="pt_tram_T5:0" color="0,113,101" edges="1204050254 1188038972#1 332345206#0 332345206#1 332345206#3 332345206#4 332345205#0 332345205#1 332345205#2 332345205#3 332345205#4 332345205#5" >
        <stop busStop="3394604154" duration="20" until="33.0"/> <!-- Glòries -->
        <stop busStop="3394604160" duration="20" until="96.0"/> <!-- La Farinera -->
    </route>
    <route id="pt_tram_T5:1" color="0,113,101" edges="-332345205#5 -332345205#4 -332345205#3 -332345205#2 -332345205#1 -332345205#0 1178212808#0 1178212808#1 1178212808#3 1188038976#0 1188038976#1" >
        <stop busStop="3394604161" duration="20" until="106.0"/> <!-- La Farinera -->
        <stop busStop="3394604155" duration="20" until="186.0"/> <!-- Glòries -->
    </route>
    <route id="pt_train_R6:1" color="184,182,183" edges="1177980249" >
        <stop busStop="3398928332" duration="20" until="31.0"/> <!-- Plaça Espanya -->
    </route>
    <route id="pt_bus_65:0" color="208,46,38" edges="770048769#0 1246312059 404402531 1137827993#2 245676679#0 208708606 1104592109 208708602 245672925#0 1245524404 22650940#0 22650940#2" >
        <stop busStop="1966516541" duration="20" until="201.0"/> <!-- Plaça Espanya - FGC -->
    </route>
    <route id="pt_bus_N12:0" color="28,72,131" edges="237790227#1" >
        <stop busStop="6129339633" duration="20" until="50.0"/> <!-- Ramon Trias Fargas - Pg Marítim -->
    </route>
    <route id="pt_bus_N0:1" color="28,72,131" edges="4079520#2" >
        <stop busStop="8371290346" duration="20" until="37.0"/> <!-- Pg. Colom-Port Vell -->
    </route>
    <route id="pt_train_Ouigo:1" color="229,10,112" edges="656070998 656071004 998479288 772266511" >
        <stop busStop="1305698370" duration="20" until="272.0"/> <!-- Barcelona - Sants -->
    </route>
    <route id="pt_bus_X86:0" color="249,219,79" edges="545715327#0 545715327#2 245676677 208708603 1246312059 4787707 448563711 532289328#0 532289328#2 448563710 532088856#0 237529468#1 514849726#1 514849726#3 4750707#0 4750707#1 4750707#2" >
        <stop busStop="8032746332" duration="20" until="163.0"/> <!-- Pl. Espanya - Paral·lel -->
    </route>
    <route id="pt_train_R60:1" color="112,112,114" edges="1177980249" >
        <stop busStop="3398928332" duration="20" until="31.0"/> <!-- Plaça Espanya -->
    </route>
    <route id="pt_tram_T6:0" color="0,113,101" edges="-332345205#5 -332345205#4 -332345205#3 -332345205#2 -332345205#1 -332345205#0 1178212808#0 1178212808#1 1178212808#3 1188038976#0 1188038976#1" >
        <stop busStop="3394604161" duration="20" until="155.0"/> <!-- La Farinera -->
        <stop busStop="3394604155" duration="20" until="217.0"/> <!-- Glòries -->
    </route>
    <route id="pt_bus_X79:0" color="249,219,79" edges="254329359#1 862197867#0 862197868#0 862197868#1 449751440#0 449751440#1 449751440#2 -283778455#2 -283778455#1 -283778455#0 -129169441 -544243183" >
        <stop busStop="-5341631257" duration="20" until="252.0"/> <!-- Diagonal - Doctor Fleming -->
    </route>
    <route id="pt_bus_46:0" color="208,46,38" edges="770048769#0 1246312059 404402531 1137827993#2 245676679#0 208708606 1104592109 208708602 245672925#0 1245524404 22650940#0 22650940#2" >
        <stop busStop="1966516541" duration="20" until="260.0"/> <!-- Plaça Espanya - FGC -->
    </route>
    <route id="pt_bus_V3:0" color="119,176,69" edges="543400540#0 295288872 208616308#0 208606445#0 773889539 208606446#0 208616306" >
        <stop busStop="5253055691" duration="20" until="35.0"/> <!-- Carles III - Numància -->
    </route>
    <route id="pt_tram_T6:1" color="0,113,101" edges="1204050254 1188038972#1 332345206#0 332345206#1 332345206#3 332345206#4 332345205#0 332345205#1 332345205#2 332345205#3 332345205#4 332345205#5" >
        <stop busStop="3394604154" duration="20" until="33.0"/> <!-- Glòries -->
        <stop busStop="3394604160" duration="20" until="128.0"/> <!-- La Farinera -->
    </route>
    <route id="pt_train_R5:1" color="56,176,177" edges="1177980249" >
        <stop busStop="3398928332" duration="20" until="31.0"/> <!-- Plaça Espanya -->
    </route>
    <route id="pt_bus_23:1" color="208,46,38" edges="887560129 245676677 532279581#0" >
        <stop busStop="1193548729" duration="20" until="31.0"/> <!-- Pl Espanya -->
    </route>
    <route id="pt_train_Ouigo:2" color="229,10,112" edges="656070998 656071004 998479288 772266511" >
        <stop busStop="1305698370" duration="20" until="306.0"/> <!-- Barcelona - Sants -->
    </route>
    <route id="pt_bus_Bus:_Guimerà_=_Barcelona:0" edges="34054326#0 34054326#2 34054326#3 34054326#4 34054326#5 238862114#0 238862114#1 450186812#0 17206544#1 17206544#2 17206544#3 238768628#0 238768628#3 544164281#1 544164281#2 237805207#1 237805207#3 237805207#6 544164280#1 544164280#4 544164280#5 237960946#0 237960946#1 237960946#2 237960946#5 243598397#2 243598397#4 243598397#5 129216271#0 129216271#1 129216271#2 129216268 557140495 43706705#0 43706705#2 43706699 247548701 180717283#0 180717284#0 42520938 23425565 180717280#2 180717280#4 352482186#1 922121752#1" >
        <stop busStop="539147490@1744556" duration="20" until="324.0"/> <!-- Sants Estació d'Autobús -->
    </route>
    <route id="pt_bus_47:0" color="208,46,38" edges="237790227#1" >
        <stop busStop="6129339633" duration="20" until="50.0"/> <!-- Ramon Trias Fargas - Pg Marítim -->
    </route>
    <route id="pt_bus_1728:0" edges="1000249404 1240405129 1043669615 1047669079#1 545747647#1 931878851 308354705#0 308354705#2 308354705#3 -44029286 -308354914#1 -308354914#0 -490655483#5 -490655483#4 -490655483#3 -490655483#0 -182069872#5 -182069872#4 -182069872#1 -182069872#0 -490655488#0 116359442#3 490602015#0 490602015#2 329378776#0 329378776#1 329378776#3 134198193#0 4746993#2" >
        <stop busStop="1191150240" duration="20" until="448.0"/> <!-- Estació d'Autobusos Barcelona Nord -->
    </route>
    <route id="pt_train_R50:1" color="53,146,163" edges="1177980249" >
        <stop busStop="3398928332" duration="20" until="31.0"/> <!-- Plaça Espanya -->
    </route>
    <route id="pt_bus_H4:1" color="40,53,131" edges="-32429563#2 918365463 -680884121#0 -237506956#1 -237506956#0 -237506957#1 -237506957#0 -139259333#1" >
        <stop busStop="-8168365826" duration="20" until="41.0"/> <!-- Pg Sant Gervasi - Pl Bonanova -->
    </route>
    <route id="pt_bus_H4:0" color="40,53,131" edges="139259333#0 237506957#0 237506957#1 237506957#4 237506956#1 680884121#0 969582715#0 32429563#1" >
        <stop busStop="8168365849" duration="20" until="53.0"/> <!-- Pg Bonanova - Horaci -->
    </route>
    <route id="pt_train_9736:0" color="0,117,161" edges="772266514#2 656075744#1 656075742 184471374 810833109#1" >
        <stop busStop="1118408124" duration="20" until="51.0"/> <!-- Barcelona - Sants -->
    </route>
    <route id="pt_train_AVE:1" edges="656070998 656071004 998479289 395889346 772558509#0 -772558508#0 772266514#2" >
        <stop busStop="1118408124@13431684" duration="20" until="321.0"/> <!-- Barcelona - Sants -->
    </route>
    <route id="pt_train_Iryo:0" color="red" edges="656070998 656071004 998479289 772794873 774727419 -772558510#1 772558511#1 772266520#2" >
        <stop busStop="1118396324@13280819" duration="20" until="289.0"/> <!-- Barcelona - Sants -->
    </route>
    <route id="pt_bus_23:0" color="208,46,38" edges="770048769#0 1246312059 404402531 1137827993#2 245676679#0 208708606 1104592109 208708602 245672925#0 1245524404 887560129" >
        <stop busStop="8228181023" duration="20" until="68.0"/> <!-- Pl Espanya - Av Reina Maria Cristina -->
    </route>
    <route id="pt_bus_70:1" color="208,46,38" edges="45185732#4" >
        <stop busStop="8286917383" duration="20" until="50.0"/> <!-- Badal - Canalejas -->
    </route>
    <route id="pt_bus_V27:1" color="119,176,69" edges="237927190#0 237927190#5 237927190#6 237927190#8 237927190#10 243591205#0 243591205#1 546607925#0 546607925#1 546607925#3 237506928#0 237506928#1 237506928#2 237506928#4 416456060 416456059#0 237715975#0 237715975#1 237790227#1" >
        <stop busStop="8206342477" duration="20" until="57.0"/> <!-- Av Icària - Joan Miró -->
    </route>
    <route id="pt_bus_131:0" color="208,46,38" edges="35172602#0 35172602#1 35172602#2 35172602#3 554918726#0 554918726#1" >
        <stop busStop="8355024726" duration="20" until="53.0"/> <!-- Putxet - Cadis -->
    </route>
    <route id="pt_train_S9:0" color="233,82,125" edges="1177980249" >
        <stop busStop="3398928332" duration="20" until="31.0"/> <!-- Plaça Espanya -->
    </route>
    <route id="pt_bus_79:0" color="208,46,38" edges="770048769#0 1246312059 404402531 1137827993#2 245676679#0 208708606 1104592109 208708602 245672925#0 1245524404 22650940#0 22650940#2" >
        <stop busStop="1966516541" duration="20" until="115.0"/> <!-- Plaça Espanya - FGC -->
    </route>
    <route id="pt_bus_150:1" color="208,46,38" edges="770048769#0 1246312059 4787707 448563711" >
        <stop busStop="1193548784" duration="20" until="89.0"/> <!-- Pl Espanya - Fira Barcelona -->
    </route>
    <route id="pt_bus_N41:0" edges="542956873 68506253#1 68506253#2 532631875 295215809#0 545932590#1 -238326403#0 -185957649#1 918410082#1 12373020#1 12373020#2 12373020#3 12373020#4 12373020#5 243591204#0 243591204#1 243591204#2 243591204#5 243591204#6 243591204#7 243591204#8 243591204#9 243591204#10 243591204#11 243591204#12 237529479#1 237529479#2 237529479#4 237529479#5 237529479#6 237529479#7 237529479#8 237529479#9 237529479#10 237923125#0 237923125#1 237923125#2 546184106#0 1137827992#0 1137827992#1 309183789#0 309183789#1 1137827995 245676679#0 208708606 1104592109 208708602 245672925#0 1245524404 22650940#0 22650940#2" >
        <stop busStop="1966472090" duration="20" until="49.0"/> <!-- Ronda Universitat - Plaça Catalunya -->
    </route>
    <route id="pt_train_Iryo:2" color="red" edges="656070998 656071004 998479289 772794873 774727419 -772558510#1 772558511#1 772266520#2" >
        <stop busStop="1118396324@13280819" duration="20" until="307.0"/> <!-- Barcelona - Sants -->
    </route>
    <route id="pt_bus_141:0" color="208,46,38" edges="145565059#1 868707436#1 237960950 553586755#1 553586755#3 570088936#1 570088936#2 295263585#1 295263585#3 237960949#2 237960949#4 237960949#5 237960949#6 237960949#7 237960949#8 237960949#10 552422734#1 552422734#2 552422734#3 552422733#1 552422733#2 552422733#4 1112404106#0 1112404106#1 1112404106#5 1112404106#9 449991639#1 449991639#2 449991639#4 449991639#5 449991639#6 449991639#8 1227367185#0 1227367185#1 879204520 905210700#0 905210700#2 905210700#3 237506930#0 237506930#1 237506930#2 243591204#0 243591204#1 243591204#2 243591204#5 243591204#6 243591204#7 243591204#8 243591204#9 449991637#3 449991637#4 449991637#6 450610285#0 450610285#1 591637631#1 238326399#0 238326399#1 547477971#2 868707435#0 868707435#1" >
        <stop busStop="8097353540" duration="20" until="38.0"/> <!-- Comte d'Urgell - Pl. Francesc Macià -->
    </route>
    <route id="pt_bus_115:0" color="208,46,38" edges="831157579#0 831157579#1 831157580#0 42520941#0 42520941#2 831157582#0 831157582#1 831157582#6 831157582#8 243598403 1227311558#0 1239683617#1 294021549#1 294021549#2 309246597 550730492 831157592 -905524536#6 905524536#5 315269000#0 42520943#0 42520943#1 42520943#2 129216268 180010044#0 180010044#2 557065981#0 557065981#3 30761362#1" >
        <stop busStop="7760665318" duration="20" until="95.0"/> <!-- Pl. Sants -->
    </route>
    <route id="pt_bus_M14:0" color="249,219,79" edges="-863629113 -558302442#0 -864123947#1 -864123947#0" >
        <stop busStop="-8050203730" duration="20" until="84.0"/> <!-- Flos i Calcat - l'Illa -->
    </route>
    <route id="pt_train_9704:0" color="0,117,161" edges="772266514#2 656075744#1 656075742 184471374 810833109#1" >
        <stop busStop="1118408124" duration="20" until="51.0"/> <!-- Barcelona - Sants -->
    </route>
    <route id="pt_bus_116:0" color="208,46,38" edges="1264832639#0 1264832640#1 1264832641#0 1264832643#1 123527842#1 831182073#1 1236965646 296827099#0 296827099#1 -208568869#3 -208568869#2 -208568869#1 208568868#2" >
        <stop busStop="8319115754" duration="20" until="60.0"/> <!-- Torrent de les Flors - Sant Lluís -->
    </route>
    <route id="pt_train_AVE:3" edges="656070998 656071004 998479289 395889346 772558509#0 -772558508#0 772266514#2" >
        <stop busStop="1118408124@13431684" duration="20" until="226.0"/> <!-- Barcelona - Sants -->
    </route>
    <route id="pt_bus_V5:0" color="119,176,69" edges="831157579#0 831157579#1 831157580#0 243598396#3 243598396#4 243598396#5 243598396#6 243598396#9 243598396#10 243598396#13 243598396#15 243598396#18 243598396#21 243598396#23 -1162491019#2 -239293914#6 4750221#1 4750221#3 4750221#4 4750221#6 4750221#7 4750221#8 4750221#9 544641226#0 544641226#1 450020890" >
        <stop busStop="7760665318" duration="20" until="75.0"/> <!-- Pl. Sants -->
    </route>
    <route id="pt_bus_121:0" color="208,46,38" edges="237529472#1 246638748#2 238326399#0 238326399#1 547477971#2 340350446#1 340350446#2 552124691#3" >
        <stop busStop="2536484166" duration="20" until="45.0"/> <!-- Mercat de Sant Antoni -->
    </route>
    <route id="pt_subway_L7:0" color="172,84,20" edges="867668762 867668756 363139235 867668752 867668760 867668775 810841350#1 332758529 363164188#1" >
        <stop busStop="3673333977" duration="20" until="31.0"/> <!-- Plaça de Catalunya (FGC) -->
        <stop busStop="255406917" duration="20" until="187.0"/> <!-- Provença -->
        <stop busStop="3398928312" duration="20" until="267.0"/> <!-- Gràcia -->
        <stop busStop="3398928333" duration="20" until="332.0"/> <!-- Plaça Molina -->
        <stop busStop="259650072" duration="20" until="429.0"/> <!-- Pàdua -->
        <stop busStop="259650081" duration="20" until="460.0"/> <!-- el Putxet -->
    </route>
    <route id="pt_train_S3:0" color="54,163,144" edges="1177980248 1177980248 1177980248" >
        <stop busStop="3377296749" duration="20" until="31.0"/> <!-- Plaça Espanya -->
    </route>
    <route id="pt_subway_L7:1" color="172,84,20" edges="363164188#1 363054423 810841349#2 810841349#0 867668759 867668773#0 867668773#1 -867668758" >
        <stop busStop="3398928365" duration="20" until="46.0"/> <!-- el Putxet -->
        <stop busStop="3398928339" duration="20" until="77.0"/> <!-- Pàdua -->
        <stop busStop="259650063" duration="20" until="114.0"/> <!-- Plaça Molina -->
        <stop busStop="1899907352" duration="20" until="179.0"/> <!-- Gràcia -->
        <stop busStop="3398928337" duration="20" until="259.0"/> <!-- Provença -->
        <stop busStop="-3673333977" duration="20" until="401.0"/> <!-- Plaça de Catalunya (FGC) -->
    </route>
    <route id="pt_train_Iryo:5" color="red" edges="656070998 656071004 998479289 772794873 774727419 -772558510#1 772558511#1 772266520#2" >
        <stop busStop="1118396324@13280819" duration="20" until="307.0"/> <!-- Barcelona - Sants -->
    </route>
    <route id="pt_bus_165:0" color="208,46,38" edges="770048769#0 1246312059 404402531 1137827993#2 245676679#0 208708606 1104592109 208708602 245672925#0 1245524404 22650940#0 22650940#2" >
        <stop busStop="1966516541" duration="20" until="134.0"/> <!-- Plaça Espanya - FGC -->
    </route>
    <route id="pt_train_9743:0" edges="772266517#0 772266517#0 772266517#0" >
        <stop busStop="1118396324" duration="20" until="31.0"/> <!-- Barcelona - Sants -->
    </route>
    <route id="pt_bus_68:0" color="208,46,38" edges="238324877#1 490175813#0 490175813#1 4744972#1 4744972#2 4744972#7 542781427#0 542781427#1 542781427#3 4744966#1 4744966#3 4744966#4 4744966#6 4744966#7 4744966#8 4744966#9 237659855#0 237659855#1 536376972#0 536376972#1 244059994#0 244059994#1 238324875#0 238324875#1 237506961 918459857#1 918459858#0 918459858#5 918459858#8 237506929#1 237506929#4 237506929#7 237506963#0 308378779 295263593#1 295263593#2 308378776#1 308378774#0 243525358#2 308378773 902154887 308378772#0 308378772#3 308378771#0 308378771#1 308378769" >
        <stop busStop="2510905949" duration="20" until="38.0"/> <!-- Provença - Casanova -->
    </route>
    <route id="pt_bus_88:1" color="249,219,79" edges="185961564#0 185961564#3 185961564#6 880513897#2 880513897#3 880513897#6 880513897#8 880513897#9" >
        <stop busStop="5603009324" duration="20" until="49.0"/> <!-- Paral·lel - Drassanes -->
    </route>
    <route id="pt_bus_M14:1" color="249,219,79" edges="-864123947#0 862748475 558313141#1 449751441#0 449751441#1 449751441#2 -129169441 -544243183" >
        <stop busStop="-8050203730" duration="20" until="43.0"/> <!-- Flos i Calcat - l'Illa -->
    </route>
    <route id="pt_bus_X95:1" color="249,219,79" edges="542956873 68506253#1 68506253#2 532631875 295215809#0 545932590#1 -238326403#0 -185957649#1 918410082#1 12373020#1 12373020#2 12373020#3 12373020#4 12373020#5 243591204#0 243591204#1 243591204#2 243591204#5 243591204#6 243591204#7 243591204#8 243591204#9 243591204#10 243591204#11 243591204#12 237529479#1 237529479#2 237529479#4 237529479#5 237529479#6 237529479#7 237529479#8 237529479#9 237529479#10 237923125#0 237923125#1 237923125#2 546184106#0 1137827992#0 1137827992#1 309183789#0 309183789#1 1137827995 245676679#0 208708606 1104592109 208708602 245672925#0 1245524404 22650940#0 22650940#2" >
        <stop busStop="8634928230" duration="20" until="43.0"/> <!-- Rda Universitat - Plaça Catalunya -->
    </route>
    <route id="pt_bus_131:1" color="208,46,38" edges="34874441#0 554918725#0 554918725#1 543586123#1 543586123#2 287522315#1 543586122#0 543586122#1 -910454226#1 -910454226#0 -262514248#2 -262514248#1 -44868702#8 -44868702#6" >
        <stop busStop="412549133" duration="20" until="34.0"/> <!-- Saragossa - Ronda General Mitre -->
    </route>
    <route id="pt_bus_B20:0" color="249,219,79" edges="466765995#0 466765995#2 466765995#4 466765995#5 466765995#6 466765995#8 295215800#1 295215800#3 295215800#4 295215800#6 237927201#0 237927201#1 237927201#3 237927201#4 451710465#0 451710465#1 451710465#3 243591203#2 243591203#4 237506931#0 237506931#1 237506931#3 182069868#0 182069868#2 1207893835 538185606#0 538185606#2 226319534#1 226319534#2 226319534#3 1243383086 308159955#0 308159955#1 308159955#3 308159956#0 308159956#3 329378776#0 329378776#1 329378776#3 134198193#0 134198192#0 134198192#2 194097021#3 237914518#0 237914518#2 237914518#5 237914519#0 237914519#1 330913954#0 330913954#1 330913954#3 330913954#5 330913954#6 601810762#1 601810762#3 511211614#0 511211614#2" >
        <stop busStop="5597374300" duration="20" until="99.0"/> <!-- Pujades - Àlaba -->
    </route>
    <route id="pt_train_Alvia_00664:0" edges="772266518#0 772266518#0 656070993" >
        <stop busStop="1305698297" duration="20" until="31.0"/> <!-- Barcelona - Sants -->
    </route>
    <route id="pt_bus_N1135:1" edges="1000249404 1240405129 1043669615 1047669079#1 545747647#1 931878851 308354705#0 308354705#2 308354705#3 -44029286 -308354914#1 -308354914#0 -490655483#5 -490655483#4 -490655483#3 -490655483#0 -182069872#5 -182069872#4 -182069872#1 -182069872#0 -490655488#0 116359442#3 490602015#0 490602015#2 329378776#0 329378776#1 329378776#3 134198193#0 4746993#2" >
        <stop busStop="1191150240" duration="20" until="631.0"/> <!-- Estació d'Autobusos Barcelona Nord -->
    </route>
    <route id="pt_subway_L6:0" color="114,128,192" edges="-867668763 867668774#0 867668774#1 363139235 867668752 867668760 867668775 810841350#1 38915350" >
        <stop busStop="-3673333976" duration="20" until="31.0"/> <!-- Plaça de Catalunya (FGC) -->
        <stop busStop="255406917" duration="20" until="123.0"/> <!-- Provença -->
        <stop busStop="802777749" duration="20" until="203.0"/> <!-- Gràcia -->
        <stop busStop="255406869" duration="20" until="269.0"/> <!-- Sant Gervasi -->
        <stop busStop="255406873" duration="20" until="333.0"/> <!-- Muntaner -->
        <stop busStop="259649936" duration="20" until="402.0"/> <!-- la Bonanova -->
        <stop busStop="259649938" duration="20" until="465.0"/> <!-- les Tres Torres -->
        <stop busStop="417330037" duration="20" until="527.0"/> <!-- Sarrià -->
    </route>