<?xml version="1.0" encoding="UTF-8"?>

<!-- generated on 2024-04-18 17:39:26.737797 by $Id: ptlines2flows.py v1_3_1+0313-ccb31df3eb jakob.erdmann@dlr.de 2019-09-02 13:26:32 +0200 $ v1_19_0+0000-baa66a0f364
<configuration>
    <net-file value="C:\Users\Jaime\Sumo\2024-04-18-17-37-51\osm.net.xml.gz"/>
    <ptlines-file value="C:\Users\Jaime\Sumo\2024-04-18-17-37-51\osm_ptlines.xml"/>
    <ptstops-file value="C:\Users\Jaime\Sumo\2024-04-18-17-37-51\osm_stops.add.xml"/>
    <output-file value="C:\Users\Jaime\Sumo\2024-04-18-17-37-51\osm_pt.rou.xml"/>
    <stopinfos-file value="C:\Users\Jaime\Sumo\2024-04-18-17-37-51\stopinfos.xml"/>
    <routes-file value="C:\Users\Jaime\Sumo\2024-04-18-17-37-51\vehroutes.xml"/>
    <trips-file value="C:\Users\Jaime\Sumo\2024-04-18-17-37-51\trips.trips.xml"/>
    <min-stops value="0"/>
    <extend-to-fringe value="True"/>
    <random-begin value="True"/>
    <seed value="42"/>
    <ignore-errors value="True"/>
    <vtype-prefix value="pt_"/>
    <verbose value="True"/>
</configuration>
-->

<routes xmlns:xsi="http://www.w3.org/2001/XMLSchema-instance" xsi:noNamespaceSchemaLocation="http://sumo.dlr.de/xsd/routes_file.xsd">
    <vType id="pt_bus" vClass="bus" speedFactor="0.95"/>
    <vType id="pt_tram" vClass="tram" speedFactor="1.0"/>
    <vType id="pt_train" vClass="rail"/>
    <vType id="pt_subway" vClass="rail_urban"/>
    <vType id="pt_light_rail" vClass="rail_urban"/>
    <vType id="pt_monorail" vClass="rail_urban"/>
    <vType id="pt_trolleybus" vClass="bus" speedFactor="0.95"/>
    <vType id="pt_minibus" vClass="bus" speedFactor="0.95"/>
    <vType id="pt_share_taxi" vClass="taxi" speedFactor="0.95"/>
    <vType id="pt_aerialway" vClass="rail_urban" length="2.5" width="2" personCapacity="4"/>
    <vType id="pt_ferry" vClass="ship"/>
    <trip id="0_bus_N1131:0" type="pt_bus" depart="0.0" departLane="best" from="1000249404" to="22650940#2">
        <stop busStop="1191150240" duration="30"/>
    </trip>
    <trip id="1_bus_N1131:1" type="pt_bus" depart="1.0" departLane="best" from="540057569" to="1000038393">
        <stop busStop="1191150240" duration="30"/>
    </trip>
    <trip id="2_train_S2:0" type="pt_train" depart="2.0" departLane="best" from="866397101" to="38915350">
        <stop busStop="8087619815" duration="30"/>
        <stop busStop="255406917" duration="30"/>
        <stop busStop="802777749" duration="30"/>
        <stop busStop="255406869" duration="30"/>
        <stop busStop="255406873" duration="30"/>
        <stop busStop="259649936" duration="30"/>
        <stop busStop="259649938" duration="30"/>
        <stop busStop="417330037" duration="30"/>
    </trip>
    <trip id="3_bus_N721:0" type="pt_bus" depart="3.0" departLane="best" from="540057569" to="1000038393">
        <stop busStop="1191150240" duration="30"/>
    </trip>
    <trip id="4_bus_N721:1" type="pt_bus" depart="4.0" departLane="best" from="1000249404" to="22650940#2">
        <stop busStop="1191150240" duration="30"/>
    </trip>
    <trip id="5_bus_N61:0" type="pt_bus" depart="5.0" departLane="best" from="519375847#1" to="308378769">
        <stop busStop="5726021529" duration="30"/>
        <stop busStop="-8214234942" duration="30"/>
    </trip>
    <trip id="6_train_R17:0" type="pt_train" depart="6.0" departLane="best" from="217122022" to="267004206">
        <stop busStop="7215417855" duration="30"/>
        <stop busStop="4743352986" duration="30"/>
        <stop busStop="1305698291" duration="30"/>
    </trip>
    <trip id="7_train_R17:1" type="pt_train" depart="11.0" departLane="best" from="267004208" to="772812648">
        <stop busStop="1305698373" duration="30"/>
        <stop busStop="4743352987" duration="30"/>
        <stop busStop="7215417857" duration="30"/>
    </trip>
    <trip id="8_bus_N41:0" type="pt_bus" depart="14.0" departLane="best" from="542956873" to="22650940#2">
        <stop busStop="1966472090" duration="30"/>
    </trip>
    <trip id="9_bus_X95:0" type="pt_bus" depart="14.0" departLane="best" from="545715327#0" to="542956873">
        <stop busStop="5760480289" duration="30"/>
    </trip>
    <trip id="10_bus_N41:1" type="pt_bus" depart="15.0" departLane="best" from="545715327#0" to="542956873">
        <stop busStop="3460264088" duration="30"/>
        <stop busStop="1966472090" duration="30"/>
    </trip>
    <trip id="11_bus_100:0" type="pt_bus" depart="15.0" departLane="best" from="126304603#2" to="126304603#2">
        <stop busStop="823781719" duration="30"/>
        <stop busStop="-5375631706" duration="30"/>
        <stop busStop="823781710" duration="30"/>
        <stop busStop="30914313" duration="30"/>
        <stop busStop="5165491486" duration="30"/>
    </trip>
    <trip id="12_bus_101:0" type="pt_bus" depart="17.0" departLane="best" from="295263590" to="545937949#0">
        <stop busStop="-5375631706" duration="30"/>
        <stop busStop="-5375631705" duration="30"/>
    </trip>
    <trip id="13_bus_1728:0" type="pt_bus" depart="19.0" departLane="best" from="1000249404" to="4746993#2">
        <stop busStop="1191150240" duration="30"/>
    </trip>
    <trip id="14_bus_1728:1" type="pt_bus" depart="27.0" departLane="best" from="-4746993#2" to="1000038393">
        <stop busStop="-1191150240" duration="30"/>
    </trip>
    <trip id="15_bus_N1135:0" type="pt_bus" depart="28.0" departLane="best" from="-4746993#2" to="1000038393">
        <stop busStop="-1191150240" duration="30"/>
    </trip>
    <trip id="16_bus_N1135:1" type="pt_bus" depart="30.0" departLane="best" from="1000249404" to="4746993#2">
        <stop busStop="1191150240" duration="30"/>
    </trip>
    <trip id="17_bus_N717:0" type="pt_bus" depart="34.0" departLane="best" from="-4746993#2" to="1000038393">
        <stop busStop="-1191150240" duration="30"/>
    </trip>
    <trip id="18_bus_N717:1" type="pt_bus" depart="34.0" departLane="best" from="1000249404" to="4746993#2">
        <stop busStop="1191150240" duration="30"/>
    </trip>
    <trip id="19_bus_N727:0" type="pt_bus" depart="35.0" departLane="best" from="540057569" to="1000038393">
        <stop busStop="1191150240" duration="30"/>
    </trip>
    <trip id="20_bus_N727:1" type="pt_bus" depart="38.0" departLane="best" from="1000249404" to="22650940#2">
        <stop busStop="1191150240" duration="30"/>
    </trip>
    <trip id="21_bus_N707:0" type="pt_bus" depart="41.0" departLane="best" from="-4746993#2" to="1000038393">
        <stop busStop="-1191150240" duration="30"/>
    </trip>
    <trip id="22_bus_N707:1" type="pt_bus" depart="41.0" departLane="best" from="1000249404" to="4746993#2">
        <stop busStop="1191150240" duration="30"/>
    </trip>
    <trip id="23_bus_N781:0" type="pt_bus" depart="42.0" departLane="best" from="-4746993#2" to="1000038393">
        <stop busStop="-1191150240" duration="30"/>
    </trip>
    <trip id="24_train_34:0" type="pt_train" depart="42.0" departLane="best" from="267004208" to="772812648">
        <stop busStop="1305698373" duration="30"/>
        <stop busStop="4743352987" duration="30"/>
        <stop busStop="7215417857" duration="30"/>
    </trip>
    <trip id="25_train_34:1" type="pt_train" depart="43.0" departLane="best" from="217122022" to="267004206">
        <stop busStop="7215417855" duration="30"/>
        <stop busStop="4743352986" duration="30"/>
        <stop busStop="1305698291" duration="30"/>
    </trip>
    <trip id="26_bus_N781:1" type="pt_bus" depart="43.0" departLane="best" from="1000249404" to="4746993#2">
        <stop busStop="1191150240" duration="30"/>
    </trip>
    <trip id="27_train_R1:0" type="pt_train" depart="45.0" departLane="best" from="-481374955#1" to="38962089">
        <stop busStop="3888388695" duration="30"/>
        <stop busStop="3888388697" duration="30"/>
        <stop busStop="-1305698325" duration="30"/>
    </trip>
    <trip id="28_bus_X70:0" type="pt_bus" depart="47.0" departLane="best" from="770048769#0" to="22650940#2">
        <stop busStop="1966516541" duration="30"/>
    </trip>
    <trip id="29_bus_X70:1" type="pt_bus" depart="48.0" departLane="best" from="545715327#0" to="4750707#2">
        <stop busStop="8032746332" duration="30"/>
    </trip>
    <trip id="30_bus_X30:0" type="pt_bus" depart="51.0" departLane="best" from="254329359#1" to="-544243183">
        <stop busStop="8033328937" duration="30"/>
    </trip>
    <trip id="31_bus_X43:0" type="pt_bus" depart="52.0" departLane="best" from="862748475" to="-544243183">
        <stop busStop="8037346270" duration="30"/>
    </trip>
    <trip id="32_bus_X43:1" type="pt_bus" depart="54.0" departLane="best" from="-863629113" to="862748475">
        <stop busStop="8037346270" duration="30"/>
    </trip>
    <trip id="33_bus_X79:0" type="pt_bus" depart="55.0" departLane="best" from="254329359#1" to="-544243183">
        <stop busStop="-5341631257" duration="30"/>
    </trip>
    <trip id="34_bus_X80:0" type="pt_bus" depart="55.0" departLane="best" from="770048769#0" to="22650940#2">
        <stop busStop="1966516541" duration="30"/>
    </trip>
    <trip id="35_bus_X80:1" type="pt_bus" depart="58.0" departLane="best" from="545715327#0" to="4750707#2">
        <stop busStop="8032746332" duration="30"/>
    </trip>
    <trip id="36_bus_X86:0" type="pt_bus" depart="58.0" departLane="best" from="545715327#0" to="4750707#2">
        <stop busStop="8032746332" duration="30"/>
    </trip>
    <trip id="37_bus_X86:1" type="pt_bus" depart="59.0" departLane="best" from="770048769#0" to="22650940#2">
        <stop busStop="1966516541" duration="30"/>
    </trip>
    <trip id="38_bus_X95:1" type="pt_bus" depart="60.0" departLane="best" from="542956873" to="22650940#2">
        <stop busStop="8634928230" duration="30"/>
    </trip>
    <trip id="39_bus_X97:0" type="pt_bus" depart="61.0" departLane="best" from="-863629113" to="-544243183">
        <stop busStop="-5341631256" duration="30"/>
    </trip>
    <trip id="40_train_9736:0" type="pt_train" depart="64.0" departLane="best" from="772266514#2" to="810833109#1">
        <stop busStop="1118408124" duration="30"/>
    </trip>
    <trip id="41_train_9743:0" type="pt_train" depart="64.0" departLane="best" from="772266517#0" to="772266517#0">
        <stop busStop="1118396324" duration="30"/>
    </trip>
    <trip id="42_train_9704:0" type="pt_train" depart="65.0" departLane="best" from="772266514#2" to="810833109#1">
        <stop busStop="1118408124" duration="30"/>
    </trip>
    <trip id="43_train_9713:0" type="pt_train" depart="65.0" departLane="best" from="772266517#0" to="772266517#0">
        <stop busStop="1118396324" duration="30"/>
    </trip>
    <trip id="44_bus_L72:0" type="pt_bus" depart="66.0" departLane="best" from="916317130" to="22650940#2">
        <stop busStop="8066147073" duration="30"/>
    </trip>
    <trip id="45_bus_L72:1" type="pt_bus" depart="69.0" departLane="best" from="545715327#0" to="448563710">
        <stop busStop="8032746332" duration="30"/>
    </trip>
    <trip id="46_bus_141:0" type="pt_bus" depart="69.0" departLane="best" from="145565059#1" to="868707435#1">
        <stop busStop="8097353540" duration="30"/>
    </trip>
    <trip id="47_bus_141:1" type="pt_bus" depart="71.0" departLane="best" from="868707435#1" to="145565059#1">
        <stop busStop="8097353538" duration="30"/>
    </trip>
    <trip id="48_bus_X84:0" type="pt_bus" depart="72.0" departLane="best" from="-863629113" to="-544243183">
        <stop busStop="-5341631256" duration="30"/>
    </trip>
    <trip id="49_bus_X79:1" type="pt_bus" depart="76.0" departLane="best" from="544243184#0" to="254329359#1">
        <stop busStop="5343770280" duration="30"/>
    </trip>
    <trip id="50_bus_X1:0" type="pt_bus" depart="76.0" departLane="best" from="1186706639#1" to="984712370">
        <stop busStop="2193415468" duration="30"/>
    </trip>
    <trip id="51_train_AVE:0" type="pt_train" depart="77.0" departLane="best" from="772266520#2" to="772266520#2">
        <stop busStop="1118396324@13280819" duration="30"/>
    </trip>
    <trip id="52_train_Ouigo:0" type="pt_train" depart="79.0" departLane="best" from="656070998" to="772266511">
        <stop busStop="1305698370" duration="30"/>
    </trip>
    <trip id="53_train_Ouigo:1" type="pt_train" depart="80.0" departLane="best" from="656070998" to="772266511">
        <stop busStop="1305698370" duration="30"/>
    </trip>
    <trip id="54_train_Ouigo:2" type="pt_train" depart="88.0" departLane="best" from="656070998" to="772266511">
        <stop busStop="1305698370" duration="30"/>
    </trip>
    <trip id="55_train_Ouigo:3" type="pt_train" depart="91.0" departLane="best" from="772266511" to="772266511">
        <stop busStop="1305698370" duration="30"/>
    </trip>
    <trip id="56_train_Ouigo:4" type="pt_train" depart="92.0" departLane="best" from="772266511" to="772266511">
        <stop busStop="1305698370" duration="30"/>
    </trip>
    <trip id="57_train_Ouigo:5" type="pt_train" depart="92.0" departLane="best" from="772266511" to="772266511">
        <stop busStop="1305698370" duration="30"/>
    </trip>
    <trip id="58_train_AVE:1" type="pt_train" depart="93.0" departLane="best" from="656070998" to="772266514#2">
        <stop busStop="1118408124@13431684" duration="30"/>
    </trip>
    <trip id="59_train_AVE:2" type="pt_train" depart="94.0" departLane="best" from="772266520#2" to="772266520#2">
        <stop busStop="1118396324@13280819" duration="30"/>
    </trip>
    <trip id="60_bus_Bus:_Barcelona_=_Guimerà:0" type="pt_bus" depart="94.0" departLane="best" from="352482723" to="-544243183">
        <stop busStop="539147490" duration="30"/>
    </trip>
    <trip id="61_train_Iryo:0" type="pt_train" depart="98.0" departLane="best" from="656070998" to="772266520#2">
        <stop busStop="1118396324@13280819" duration="30"/>
    </trip>
    <trip id="62_train_Iryo:1" type="pt_train" depart="99.0" departLane="best" from="772266520#2" to="772266520#2">
        <stop busStop="1118396324@13280819" duration="30"/>
    </trip>
    <trip id="63_train_Iryo:2" type="pt_train" depart="102.0" departLane="best" from="656070998" to="772266520#2">
        <stop busStop="1118396324@13280819" duration="30"/>
    </trip>
    <trip id="64_train_Iryo:3" type="pt_train" depart="107.0" departLane="best" from="772266520#2" to="772266520#2">
        <stop busStop="1118396324@13280819" duration="30"/>
    </trip>
    <trip id="65_train_R16:0" type="pt_train" depart="107.0" departLane="best" from="217122022" to="267004206">
        <stop busStop="7215417855" duration="30"/>
        <stop busStop="4743352986" duration="30"/>
        <stop busStop="1305698291" duration="30"/>
    </trip>
    <trip id="66_train_Iryo:4" type="pt_train" depart="111.0" departLane="best" from="772266520#2" to="772266520#2">
        <stop busStop="1118396324@13280819" duration="30"/>
    </trip>
    <trip id="67_train_Iryo:5" type="pt_train" depart="114.0" departLane="best" from="656070998" to="772266520#2">
        <stop busStop="1118396324@13280819" duration="30"/>
    </trip>
    <trip id="68_bus_89:0" type="pt_bus" depart="114.0" departLane="best" from="867009429" to="880513895#9">
        <stop busStop="5609791818" duration="30"/>
    </trip>
    <trip id="69_bus_89:1" type="pt_bus" depart="115.0" departLane="best" from="185961564#0" to="880513897#9">
        <stop busStop="5603009324" duration="30"/>
    </trip>
    <trip id="70_train_S1:0" type="pt_train" depart="119.0" departLane="best" from="866419086" to="-866397102#0">
        <stop busStop="8075665237" duration="30"/>
        <stop busStop="3398928369" duration="30"/>
        <stop busStop="3398928366" duration="30"/>
        <stop busStop="3398928326" duration="30"/>
        <stop busStop="3398928343" duration="30"/>
        <stop busStop="3398928311" duration="30"/>
        <stop busStop="3398928337" duration="30"/>
        <stop busStop="-8087619814" duration="30"/>
    </trip>
    <trip id="71_bus_X83:0" type="pt_bus" depart="120.0" departLane="best" from="-863629113" to="-544243183">
        <stop busStop="-5341631256" duration="30"/>
    </trip>
    <trip id="72_bus_N20:0" type="pt_bus" depart="122.0" departLane="best" from="511211614#2" to="22650940#2">
        <stop busStop="3706371090" duration="30"/>
    </trip>
    <trip id="73_bus_N20:1" type="pt_bus" depart="122.0" departLane="best" from="545715327#0" to="511211614#2">
        <stop busStop="3460264088" duration="30"/>
    </trip>
    <trip id="74_bus_N4:0" type="pt_bus" depart="125.0" departLane="best" from="251684607#0" to="-36725973">
        <stop busStop="5264363335" duration="30"/>
    </trip>
    <trip id="75_bus_LN_102_Olot_-_Amer_-_Barcelona:0" type="pt_bus" depart="126.0" departLane="best" from="1000249404" to="889215507#2">
        <stop busStop="11158611551" duration="30"/>
    </trip>
    <trip id="76_bus_LN_102_Barcelona_-_Amer_-_Olot:0" type="pt_bus" depart="126.0" departLane="best" from="-1245668409" to="1000038393">
        <stop busStop="-11573383354" duration="30"/>
    </trip>
    <trip id="77_bus_Bus:_Guimerà_=_Barcelona:0" type="pt_bus" depart="127.0" departLane="best" from="34054326#0" to="922121752#1">
        <stop busStop="539147490@1744556" duration="30"/>
    </trip>
    <trip id="78_bus_123:0" type="pt_bus" depart="127.0" departLane="best" from="-32429563#2" to="-139259333#1">
        <stop busStop="-8168365826" duration="30"/>
    </trip>
    <trip id="79_bus_N4:1" type="pt_bus" depart="128.0" departLane="best" from="486756071" to="140001510#11">
        <stop busStop="-8220384277" duration="30"/>
    </trip>
    <trip id="80_subway_L3:0" type="pt_subway" depart="128.0" departLane="best" from="38912601#0" to="549712748#1">
        <stop busStop="3699659475" duration="30"/>
        <stop busStop="462259779" duration="30"/>
        <stop busStop="1238021418" duration="30"/>
        <stop busStop="462274207" duration="30"/>
        <stop busStop="462274208" duration="30"/>
        <stop busStop="462274209" duration="30"/>
        <stop busStop="108253724" duration="30"/>
        <stop busStop="108253730" duration="30"/>
        <stop busStop="462274210" duration="30"/>
        <stop busStop="462274211" duration="30"/>
        <stop busStop="108253748" duration="30"/>
        <stop busStop="462274212" duration="30"/>
        <stop busStop="1417669619" duration="30"/>
        <stop busStop="108229618" duration="30"/>
        <stop busStop="462274213" duration="30"/>
        <stop busStop="108229629" duration="30"/>
        <stop busStop="1043786437" duration="30"/>
        <stop busStop="2526271760" duration="30"/>
        <stop busStop="5310050887" duration="30"/>
        <stop busStop="462206272" duration="30"/>
        <stop busStop="1479334838" duration="30"/>
        <stop busStop="191777835" duration="30"/>
        <stop busStop="191777837" duration="30"/>
        <stop busStop="290020517" duration="30"/>
        <stop busStop="191777840" duration="30"/>
        <stop busStop="251543380" duration="30"/>
    </trip>
    <trip id="81_subway_L4:0" type="pt_subway" depart="131.0" departLane="best" from="871431261" to="332591364#1">
        <stop busStop="3397396371" duration="30"/>
        <stop busStop="3397396370" duration="30"/>
        <stop busStop="3397396392" duration="30"/>
        <stop busStop="3397396663" duration="30"/>
        <stop busStop="3397396646" duration="30"/>
        <stop busStop="3397396621" duration="30"/>
        <stop busStop="3397396372" duration="30"/>
        <stop busStop="3397396381" duration="30"/>
        <stop busStop="3397396367" duration="30"/>
        <stop busStop="3397396612" duration="30"/>
        <stop busStop="3397396674" duration="30"/>
        <stop busStop="3397396637" duration="30"/>
        <stop busStop="3397396603" duration="30"/>
        <stop busStop="3397396681" duration="30"/>
        <stop busStop="3397396613" duration="30"/>
        <stop busStop="3397396359" duration="30"/>
        <stop busStop="3397396607" duration="30"/>
        <stop busStop="3397396624" duration="30"/>
    </trip>
    <trip id="82_subway_L2:0" type="pt_subway" depart="131.0" departLane="best" from="549603120#0" to="549603120#2">
        <stop busStop="3397396636" duration="30"/>
        <stop busStop="3397396654" duration="30"/>
        <stop busStop="3397396672" duration="30"/>
        <stop busStop="5314633543" duration="30"/>
        <stop busStop="3397396665" duration="30"/>
        <stop busStop="3397396630" duration="30"/>
        <stop busStop="3397396652" duration="30"/>
        <stop busStop="3397396594" duration="30"/>
    </trip>
    <trip id="83_subway_L1:0" type="pt_subway" depart="132.0" departLane="best" from="812545729" to="810841346#1">
        <stop busStop="463164959" duration="30"/>
        <stop busStop="1417675799" duration="30"/>
        <stop busStop="463164955" duration="30"/>
        <stop busStop="1417675798" duration="30"/>
        <stop busStop="463164954" duration="30"/>
        <stop busStop="463164953" duration="30"/>
        <stop busStop="462295951" duration="30"/>
        <stop busStop="4454100049" duration="30"/>
        <stop busStop="4449876854" duration="30"/>
        <stop busStop="463164952" duration="30"/>
        <stop busStop="463164950" duration="30"/>
        <stop busStop="462685387" duration="30"/>
    </trip>
    <trip id="84_subway_L8:0" type="pt_subway" depart="132.0" departLane="best" from="1177980248" to="1177980248">
        <stop busStop="3377296749" duration="30"/>
    </trip>
    <trip id="85_subway_L5:0" type="pt_subway" depart="133.0" departLane="best" from="550291370#0" to="550291366#1">
        <stop busStop="463213866" duration="30"/>
        <stop busStop="463164956" duration="30"/>
        <stop busStop="3120082942" duration="30"/>
        <stop busStop="463213865" duration="30"/>
        <stop busStop="3139686771" duration="30"/>
        <stop busStop="3397396388" duration="30"/>
        <stop busStop="3371097296" duration="30"/>
        <stop busStop="462295964" duration="30"/>
        <stop busStop="463213863" duration="30"/>
    </trip>
    <trip id="86_train_R14:0" type="pt_train" depart="133.0" departLane="best" from="217122022" to="267004206">
        <stop busStop="7215417855" duration="30"/>
        <stop busStop="4743352986" duration="30"/>
        <stop busStop="1305698291" duration="30"/>
    </trip>
    <trip id="87_subway_L6:0" type="pt_subway" depart="134.0" departLane="best" from="-867668763" to="38915350">
        <stop busStop="-3673333976" duration="30"/>
        <stop busStop="255406917" duration="30"/>
        <stop busStop="802777749" duration="30"/>
        <stop busStop="255406869" duration="30"/>
        <stop busStop="255406873" duration="30"/>
        <stop busStop="259649936" duration="30"/>
        <stop busStop="259649938" duration="30"/>
        <stop busStop="417330037" duration="30"/>
    </trip>
    <trip id="88_subway_L7:0" type="pt_subway" depart="136.0" departLane="best" from="867668762" to="363164188#1">
        <stop busStop="3673333977" duration="30"/>
        <stop busStop="255406917" duration="30"/>
        <stop busStop="3398928312" duration="30"/>
        <stop busStop="3398928333" duration="30"/>
        <stop busStop="259650072" duration="30"/>
        <stop busStop="259650081" duration="30"/>
    </trip>
    <trip id="89_train_R1:1" type="pt_train" depart="136.0" departLane="best" from="754813645" to="481374954#1">
        <stop busStop="1305698377" duration="30"/>
        <stop busStop="3141961384" duration="30"/>
        <stop busStop="429766634" duration="30"/>
    </trip>
    <trip id="90_train_R2:0" type="pt_train" depart="137.0" departLane="best" from="267004208" to="276960808">
        <stop busStop="1305698373" duration="30"/>
        <stop busStop="4743352987" duration="30"/>
    </trip>
    <trip id="91_train_R4:0" type="pt_train" depart="137.0" departLane="best" from="754813645" to="-385539469">
        <stop busStop="1305698377" duration="30"/>
        <stop busStop="3141961384" duration="30"/>
        <stop busStop="429766634" duration="30"/>
    </trip>
    <trip id="92_train_R2Sud:0" type="pt_train" depart="138.0" departLane="best" from="267004208" to="772812648">
        <stop busStop="1305698373" duration="30"/>
        <stop busStop="4743352987" duration="30"/>
        <stop busStop="7215417857" duration="30"/>
    </trip>
    <trip id="93_train_R2Nord:0" type="pt_train" depart="139.0" departLane="best" from="385539472" to="267004206">
        <stop busStop="4743352986" duration="30"/>
        <stop busStop="1305698291" duration="30"/>
    </trip>
    <trip id="94_bus_B20:0" type="pt_bus" depart="141.0" departLane="best" from="466765995#0" to="511211614#2">
        <stop busStop="5597374300" duration="30"/>
    </trip>
    <trip id="95_train_R12:0" type="pt_train" depart="142.0" departLane="best" from="754813645" to="-385539469">
        <stop busStop="1305698377" duration="30"/>
        <stop busStop="3141961384" duration="30"/>
        <stop busStop="429766634" duration="30"/>
    </trip>
    <trip id="96_bus_L0101:0" type="pt_bus" depart="143.0" departLane="best" from="34054326#0" to="4746993#2">
        <stop busStop="1191150240" duration="30"/>
    </trip>
    <trip id="97_train_S3:0" type="pt_train" depart="147.0" departLane="best" from="1177980248" to="1177980248">
        <stop busStop="3377296749" duration="30"/>
    </trip>
    <trip id="98_bus_N51:0" type="pt_bus" depart="147.0" departLane="best" from="545715327#0" to="542956873">
        <stop busStop="3460264088" duration="30"/>
    </trip>
    <trip id="99_train_R16:1" type="pt_train" depart="149.0" departLane="best" from="267004208" to="772812648">
        <stop busStop="1305698373" duration="30"/>
        <stop busStop="4743352987" duration="30"/>
        <stop busStop="7215417857" duration="30"/>
    </trip>
    <trip id="100_bus_V7:0" type="pt_bus" depart="149.0" departLane="best" from="853255412#6" to="918377538">
        <stop busStop="7959328712" duration="30"/>
    </trip>
    <trip id="101_bus_V7:1" type="pt_bus" depart="149.0" departLane="best" from="123616988" to="853255412#6">
        <stop busStop="8194685209" duration="30"/>
    </trip>
    <trip id="102_train_AVE:3" type="pt_train" depart="152.0" departLane="best" from="656070998" to="772266514#2">
        <stop busStop="1118408124@13431684" duration="30"/>
    </trip>
    <trip id="103_bus_7:0" type="pt_bus" depart="157.0" departLane="best" from="34054326#0" to="310929467#1">
        <stop busStop="5343770281" duration="30"/>
    </trip>
    <trip id="104_bus_27:0" type="pt_bus" depart="157.0" departLane="best" from="180403384#2" to="-36725973">
        <stop busStop="2508645446" duration="30"/>
    </trip>
    <trip id="105_bus_39:0" type="pt_bus" depart="158.0" departLane="best" from="653349598#1" to="831182072#1">
        <stop busStop="6123166500" duration="30"/>
    </trip>
    <trip id="106_bus_62:0" type="pt_bus" depart="158.0" departLane="best" from="94765579#0" to="238179136#1">
        <stop busStop="8279041072" duration="30"/>
    </trip>
    <trip id="107_bus_115:0" type="pt_bus" depart="158.0" departLane="best" from="831157579#0" to="30761362#1">
        <stop busStop="7760665318" duration="30"/>
    </trip>
    <trip id="108_bus_46:0" type="pt_bus" depart="159.0" departLane="best" from="770048769#0" to="22650940#2">
        <stop busStop="1966516541" duration="30"/>
    </trip>
    <trip id="109_bus_H8:0" type="pt_bus" depart="159.0" departLane="best" from="251684607#0" to="450020890">
        <stop busStop="5264363335" duration="30"/>
    </trip>
    <trip id="110_bus_H16:0" type="pt_bus" depart="159.0" departLane="best" from="237927190#0" to="22650940#2">
        <stop busStop="8206342477" duration="30"/>
    </trip>
    <trip id="111_bus_H12:0" type="pt_bus" depart="159.0" departLane="best" from="1079083285#0" to="22650940#2">
        <stop busStop="10044468938" duration="30"/>
        <stop busStop="8072606812" duration="30"/>
    </trip>
    <trip id="112_bus_7:1" type="pt_bus" depart="160.0" departLane="best" from="45944519#0" to="-544243183">
        <stop busStop="8072634461" duration="30"/>
    </trip>
    <trip id="113_bus_D20:0" type="pt_bus" depart="160.0" departLane="best" from="1081172040#1" to="-45185735#13">
        <stop busStop="5318776513" duration="30"/>
    </trip>
    <trip id="114_bus_H8:1" type="pt_bus" depart="160.0" departLane="best" from="-450020890" to="140001510#11">
        <stop busStop="-5259830245" duration="30"/>
    </trip>
    <trip id="115_bus_H6:0" type="pt_bus" depart="160.0" departLane="best" from="543400540#0" to="541711519#1">
        <stop busStop="5253055691" duration="30"/>
    </trip>
    <trip id="116_bus_33:0" type="pt_bus" depart="163.0" departLane="best" from="34054326#0" to="601634007#9">
        <stop busStop="5343770281" duration="30"/>
    </trip>
    <trip id="117_bus_67:0" type="pt_bus" depart="165.0" departLane="best" from="34054326#0" to="126304603#2">
        <stop busStop="5343770281" duration="30"/>
    </trip>
    <trip id="118_bus_39:1" type="pt_bus" depart="166.0" departLane="best" from="1264838278#0" to="653349598#1">
        <stop busStop="8259972654" duration="30"/>
    </trip>
    <trip id="119_bus_H6:1" type="pt_bus" depart="166.0" departLane="best" from="36725973" to="208616306">
        <stop busStop="5249411005" duration="30"/>
    </trip>
    <trip id="120_bus_70:0" type="pt_bus" depart="167.0" departLane="best" from="308379372#1" to="45185732#4">
        <stop busStop="8286917379" duration="30"/>
    </trip>
    <trip id="121_bus_34:2" type="pt_bus" depart="167.0" departLane="best" from="237912796#0" to="208616306">
        <stop busStop="2573396945" duration="30"/>
        <stop busStop="1361887280" duration="30"/>
        <stop busStop="983361247" duration="30"/>
        <stop busStop="2573351864" duration="30"/>
        <stop busStop="2573351868" duration="30"/>
    </trip>