<?xml version="1.0" encoding="UTF-8"?>

<!-- generated on 2024-07-01 21:01:41.831320 by $Id: ptlines2flows.py v1_3_1+0313-ccb31df3eb jakob.erdmann@dlr.de 2019-09-02 13:26:32 +0200 $ v1_19_0+0000-baa66a0f364
<configuration>
    <net-file value="C:\Users\Jaime\Sumo\2024-07-01-21-01-21\osm.net.xml.gz"/>
    <ptlines-file value="C:\Users\Jaime\Sumo\2024-07-01-21-01-21\osm_ptlines.xml"/>
    <ptstops-file value="C:\Users\Jaime\Sumo\2024-07-01-21-01-21\osm_stops.add.xml"/>
    <output-file value="C:\Users\Jaime\Sumo\2024-07-01-21-01-21\osm_pt.rou.xml"/>
    <stopinfos-file value="C:\Users\Jaime\Sumo\2024-07-01-21-01-21\stopinfos.xml"/>
    <routes-file value="C:\Users\Jaime\Sumo\2024-07-01-21-01-21\vehroutes.xml"/>
    <trips-file value="C:\Users\Jaime\Sumo\2024-07-01-21-01-21\trips.trips.xml"/>
    <end value="4000.0"/>
    <min-stops value="0"/>
    <extend-to-fringe value="True"/>
    <random-begin value="True"/>
    <seed value="42"/>
    <ignore-errors value="True"/>
    <vtype-prefix value="pt_"/>
    <verbose value="True"/>
</configuration>
-->

<routes xmlns:xsi="http://www.w3.org/2001/XMLSchema-instance" xsi:noNamespaceSchemaLocation="http://sumo.dlr.de/xsd/routes_file.xsd">
    <vType id="pt_bus" vClass="bus" speedFactor="0.95"/>
    <vType id="pt_tram" vClass="tram" speedFactor="1.0"/>
    <vType id="pt_train" vClass="rail"/>
    <vType id="pt_subway" vClass="rail_urban"/>
    <vType id="pt_light_rail" vClass="rail_urban"/>
    <vType id="pt_monorail" vClass="rail_urban"/>
    <vType id="pt_trolleybus" vClass="bus" speedFactor="0.95"/>
    <vType id="pt_minibus" vClass="bus" speedFactor="0.95"/>
    <vType id="pt_share_taxi" vClass="taxi" speedFactor="0.95"/>
    <vType id="pt_aerialway" vClass="rail_urban" length="2.5" width="2" personCapacity="4"/>
    <vType id="pt_ferry" vClass="ship"/>
    <trip id="0_train_S2:0" type="pt_train" depart="0.0" departLane="best" from="866397101" to="867668775">
        <stop busStop="8087619815" duration="30"/>
    </trip>
    <trip id="1_bus_N61:0" type="pt_bus" depart="3.0" departLane="best" from="519375847#1" to="295263589#4">
        <stop busStop="5726021529" duration="30"/>
    </trip>
    <trip id="2_train_R17:0" type="pt_train" depart="6.0" departLane="best" from="217122022" to="217122022">
        <stop busStop="7215417855" duration="30"/>
    </trip>
    <trip id="3_train_R17:1" type="pt_train" depart="11.0" departLane="best" from="216952581" to="216952581">
        <stop busStop="7215417857" duration="30"/>
    </trip>
    <trip id="4_bus_N41:0" type="pt_bus" depart="15.0" departLane="best" from="542956873" to="243591204#3">
        <stop busStop="1966472090" duration="30"/>
    </trip>
    <trip id="5_bus_X95:0" type="pt_bus" depart="15.0" departLane="best" from="532696001#0" to="542956873">
        <stop busStop="5760480286" duration="30"/>
    </trip>
    <trip id="6_bus_N41:1" type="pt_bus" depart="17.0" departLane="best" from="532696001#0" to="542956873">
        <stop busStop="1966472090" duration="30"/>
    </trip>
    <trip id="7_bus_100:0" type="pt_bus" depart="19.0" departLane="best" from="126304603#2" to="126304603#2">
        <stop busStop="823781719" duration="30"/>
    </trip>
    <trip id="8_bus_101:0" type="pt_bus" depart="27.0" departLane="best" from="295263590" to="545937949#0">
        <stop busStop="5375631708" duration="30"/>
    </trip>
    <trip id="9_train_34:0" type="pt_train" depart="28.0" departLane="best" from="216952581" to="216952581">
        <stop busStop="7215417857" duration="30"/>
    </trip>
    <trip id="10_train_34:1" type="pt_train" depart="34.0" departLane="best" from="217122022" to="217122022">
        <stop busStop="7215417855" duration="30"/>
    </trip>
    <trip id="11_train_R1:0" type="pt_train" depart="38.0" departLane="best" from="385483999" to="810841348#1">
        <stop busStop="3888388697" duration="30"/>
    </trip>
    <trip id="12_bus_X95:1" type="pt_bus" depart="41.0" departLane="best" from="542956873" to="243591204#3">
        <stop busStop="8634928230" duration="30"/>
    </trip>
    <trip id="13_bus_141:0" type="pt_bus" depart="47.0" departLane="best" from="237506930#0" to="246638748#2">
        <stop busStop="8097436670" duration="30"/>
    </trip>
    <trip id="14_train_R16:0" type="pt_train" depart="51.0" departLane="best" from="217122022" to="217122022">
        <stop busStop="7215417855" duration="30"/>
    </trip>
    <trip id="15_train_S1:0" type="pt_train" depart="52.0" departLane="best" from="866397102#0" to="866397102#0">
        <stop busStop="8087619814" duration="30"/>
    </trip>
    <trip id="16_bus_N20:0" type="pt_bus" depart="54.0" departLane="best" from="519375847#1" to="243591204#3">
        <stop busStop="2989714853" duration="30"/>
    </trip>
    <trip id="17_bus_N20:1" type="pt_bus" depart="55.0" departLane="best" from="532696001#0" to="237522644#2">
        <stop busStop="1474608404" duration="30"/>
    </trip>
    <trip id="18_bus_N4:0" type="pt_bus" depart="58.0" departLane="best" from="519375847#1" to="295263589#4">
        <stop busStop="9788442646" duration="30"/>
    </trip>
    <trip id="19_bus_N4:1" type="pt_bus" depart="60.0" departLane="best" from="126301387#0" to="20475905#2">
        <stop busStop="5609793224" duration="30"/>
    </trip>
    <trip id="20_subway_L3:0" type="pt_subway" depart="65.0" departLane="best" from="38912601#0" to="38912601#3">
        <stop busStop="3699659475" duration="30"/>
        <stop busStop="462259779" duration="30"/>
        <stop busStop="1238021418" duration="30"/>
        <stop busStop="462274207" duration="30"/>
        <stop busStop="462274208" duration="30"/>
        <stop busStop="462274209" duration="30"/>
        <stop busStop="108253724" duration="30"/>
        <stop busStop="108253730" duration="30"/>
        <stop busStop="462274210" duration="30"/>
        <stop busStop="462274211" duration="30"/>
        <stop busStop="108253748" duration="30"/>
        <stop busStop="462274212" duration="30"/>
        <stop busStop="1417669619" duration="30"/>
        <stop busStop="108229618" duration="30"/>
        <stop busStop="462274213" duration="30"/>
        <stop busStop="108229629" duration="30"/>
        <stop busStop="1043786437" duration="30"/>
        <stop busStop="2526271760" duration="30"/>
        <stop busStop="5310050887" duration="30"/>
    </trip>
    <trip id="21_subway_L4:0" type="pt_subway" depart="66.0" departLane="best" from="871431262" to="871431262">
        <stop busStop="3397396367" duration="30"/>
        <stop busStop="3397396612" duration="30"/>
        <stop busStop="3397396674" duration="30"/>
        <stop busStop="3397396637" duration="30"/>
    </trip>
    <trip id="22_subway_L2:0" type="pt_subway" depart="72.0" departLane="best" from="549603120" to="549603120">
        <stop busStop="3397396636" duration="30"/>
        <stop busStop="3397396654" duration="30"/>
        <stop busStop="3397396672" duration="30"/>
        <stop busStop="5314633543" duration="30"/>
        <stop busStop="3397396665" duration="30"/>
    </trip>
    <trip id="23_subway_L1:0" type="pt_subway" depart="77.0" departLane="best" from="810841346" to="810841346">
        <stop busStop="1417675798" duration="30"/>
        <stop busStop="463164954" duration="30"/>
        <stop busStop="463164953" duration="30"/>
        <stop busStop="462295951" duration="30"/>
        <stop busStop="4454100049" duration="30"/>
        <stop busStop="4449876854" duration="30"/>
        <stop busStop="463164952" duration="30"/>
        <stop busStop="463164950" duration="30"/>
        <stop busStop="462685387" duration="30"/>
    </trip>
    <trip id="24_train_R14:0" type="pt_train" depart="91.0" departLane="best" from="217122022" to="217122022">
        <stop busStop="7215417855" duration="30"/>
    </trip>
    <trip id="25_subway_L6:0" type="pt_subway" depart="93.0" departLane="best" from="363139234" to="363139234">
        <stop busStop="3673333976" duration="30"/>
    </trip>
    <trip id="26_subway_L7:0" type="pt_subway" depart="98.0" departLane="best" from="867668762" to="867668775">
        <stop busStop="3673333977" duration="30"/>
    </trip>
    <trip id="27_train_R1:1" type="pt_train" depart="102.0" departLane="best" from="810224247" to="385539466#1">
        <stop busStop="3141961384" duration="30"/>
    </trip>
    <trip id="28_train_R4:0" type="pt_train" depart="107.0" departLane="best" from="810224247" to="385539466#1">
        <stop busStop="3141961384" duration="30"/>
    </trip>
    <trip id="29_train_R2Sud:0" type="pt_train" depart="119.0" departLane="best" from="216952581" to="216952581">
        <stop busStop="7215417857" duration="30"/>
    </trip>
    <trip id="30_train_R12:0" type="pt_train" depart="120.0" departLane="best" from="810224247" to="385539466#1">
        <stop busStop="3141961384" duration="30"/>
    </trip>
    <trip id="31_train_R16:1" type="pt_train" depart="125.0" departLane="best" from="216952581" to="216952581">
        <stop busStop="7215417857" duration="30"/>
    </trip>
    <trip id="32_bus_7:0" type="pt_bus" depart="126.0" departLane="best" from="449991617#0" to="237522644#2">
        <stop busStop="5274072653" duration="30"/>
    </trip>
    <trip id="33_bus_39:0" type="pt_bus" depart="127.0" departLane="best" from="68506233#0" to="20475905#2">
        <stop busStop="6123166500" duration="30"/>
    </trip>
    <trip id="34_bus_H16:0" type="pt_bus" depart="131.0" departLane="best" from="519375847#1" to="246638748#2">
        <stop busStop="2989714854" duration="30"/>
    </trip>
    <trip id="35_bus_H12:0" type="pt_bus" depart="131.0" departLane="best" from="1110435370#0" to="545747635#2">
        <stop busStop="5274384898" duration="30"/>
    </trip>
    <trip id="36_bus_D20:0" type="pt_bus" depart="132.0" departLane="best" from="359739475#0" to="-4079513#0">
        <stop busStop="2610196515" duration="30"/>
    </trip>
    <trip id="37_bus_67:0" type="pt_bus" depart="132.0" departLane="best" from="449991617#0" to="126304603#2">
        <stop busStop="8214234925" duration="30"/>
    </trip>
    <trip id="38_bus_X1:0" type="pt_bus" depart="133.0" departLane="best" from="532696001#0" to="316789524#1">
        <stop busStop="1474608404" duration="30"/>
    </trip>
    <trip id="39_bus_N40:0" type="pt_bus" depart="134.0" departLane="best" from="542956873" to="542956873">
        <stop busStop="1966472090" duration="30"/>
    </trip>
    <trip id="40_train_R15:0" type="pt_train" depart="136.0" departLane="best" from="216952581" to="216952581">
        <stop busStop="7215417857" duration="30"/>
    </trip>
    <trip id="41_bus_e11.1:0" type="pt_bus" depart="137.0" departLane="best" from="519375848#0" to="542956873">
        <stop busStop="1966472090" duration="30"/>
    </trip>
    <trip id="42_bus_e11.1:1" type="pt_bus" depart="138.0" departLane="best" from="542956873" to="237522644#2">
        <stop busStop="1966472090" duration="30"/>
    </trip>
    <trip id="43_bus_e11.2:0" type="pt_bus" depart="139.0" departLane="best" from="519375848#0" to="542956873">
        <stop busStop="1966472090" duration="30"/>
    </trip>
    <trip id="44_bus_e11.2:1" type="pt_bus" depart="147.0" departLane="best" from="542956873" to="237522644#2">
        <stop busStop="1966472090" duration="30"/>
    </trip>
    <trip id="45_subway_L2:1" type="pt_subway" depart="157.0" departLane="best" from="447856553" to="447856553">
        <stop busStop="462295962" duration="30"/>
        <stop busStop="462295955" duration="30"/>
        <stop busStop="5314633722" duration="30"/>
        <stop busStop="4454100050" duration="30"/>
        <stop busStop="462295947" duration="30"/>
        <stop busStop="3699659474" duration="30"/>
    </trip>
    <trip id="46_subway_L4:1" type="pt_subway" depart="158.0" departLane="best" from="866378042#0" to="866393905#1">
        <stop busStop="462256418" duration="30"/>
        <stop busStop="462256414" duration="30"/>
        <stop busStop="462256413" duration="30"/>
        <stop busStop="462256384" duration="30"/>
    </trip>
    <trip id="47_subway_L1:1" type="pt_subway" depart="158.0" departLane="best" from="810841352#0" to="810841352#1">
        <stop busStop="3397396360" duration="30"/>
        <stop busStop="4449876855" duration="30"/>
        <stop busStop="3397396380" duration="30"/>
        <stop busStop="3397396671" duration="30"/>
        <stop busStop="3397396673" duration="30"/>
        <stop busStop="3397396649" duration="30"/>
        <stop busStop="3397396596" duration="30"/>
    </trip>
    <trip id="48_subway_L3:1" type="pt_subway" depart="159.0" departLane="best" from="332758526#0" to="332758526#1">
        <stop busStop="5310050767" duration="30"/>
        <stop busStop="3398928336" duration="30"/>
        <stop busStop="3398928329" duration="30"/>
        <stop busStop="3398928297" duration="30"/>
        <stop busStop="3398928319" duration="30"/>
        <stop busStop="3398923289" duration="30"/>
        <stop busStop="3398928330" duration="30"/>
        <stop busStop="3398928295" duration="30"/>
        <stop busStop="3398928307" duration="30"/>
        <stop busStop="3398928318" duration="30"/>
        <stop busStop="3398928359" duration="30"/>
        <stop busStop="3398928331" duration="30"/>
        <stop busStop="7778850858" duration="30"/>
        <stop busStop="3398928324" duration="30"/>
        <stop busStop="3398928325" duration="30"/>
        <stop busStop="3398928360" duration="30"/>
        <stop busStop="3398923286" duration="30"/>
        <stop busStop="3398928341" duration="30"/>
        <stop busStop="3398928355" duration="30"/>
    </trip>
    <trip id="49_subway_L6:1" type="pt_subway" depart="160.0" departLane="best" from="867668776" to="363139234">
        <stop busStop="3673333976" duration="30"/>
    </trip>
    <trip id="50_bus_H12:1" type="pt_bus" depart="160.0" departLane="best" from="532696001#0" to="237522644#2">
        <stop busStop="5760480286" duration="30"/>
    </trip>
    <trip id="51_train_S1:1" type="pt_train" depart="160.0" departLane="best" from="866397102#0" to="867668775">
        <stop busStop="8087619814" duration="30"/>
    </trip>
    <trip id="52_subway_L7:1" type="pt_subway" depart="165.0" departLane="best" from="867668762" to="867668762">
        <stop busStop="3673333977" duration="30"/>
    </trip>
    <trip id="53_train_S2:1" type="pt_train" depart="166.0" departLane="best" from="866397101" to="866397101">
        <stop busStop="8087619815" duration="30"/>
    </trip>
    <trip id="54_bus_C6:0" type="pt_bus" depart="173.0" departLane="best" from="542956873" to="237522644#2">
        <stop busStop="1966472090" duration="30"/>
    </trip>
    <trip id="55_train_R2Sud:1" type="pt_train" depart="179.0" departLane="best" from="217122022" to="217122022">
        <stop busStop="7215417855" duration="30"/>
    </trip>
    <trip id="56_train_R3:0" type="pt_train" depart="184.0" departLane="best" from="385483999" to="810841348#1">
        <stop busStop="3888388697" duration="30"/>
    </trip>
    <trip id="57_train_R3:1" type="pt_train" depart="187.0" departLane="best" from="810224247" to="385539466#1">
        <stop busStop="3141961384" duration="30"/>
    </trip>
    <trip id="58_train_R4:1" type="pt_train" depart="188.0" departLane="best" from="385483999" to="810841348#1">
        <stop busStop="3888388697" duration="30"/>
    </trip>
    <trip id="59_train_RG1:0" type="pt_train" depart="189.0" departLane="best" from="810224247" to="385539466#1">
        <stop busStop="3141961384" duration="30"/>
    </trip>
    <trip id="60_train_R16:2" type="pt_train" depart="194.0" departLane="best" from="217122022" to="217122022">
        <stop busStop="7215417855" duration="30"/>
    </trip>
    <trip id="61_train_R16:3" type="pt_train" depart="201.0" departLane="best" from="216952581" to="216952581">
        <stop busStop="7215417857" duration="30"/>
    </trip>
    <trip id="62_train_R12:1" type="pt_train" depart="202.0" departLane="best" from="385483999" to="810841348#1">
        <stop busStop="3888388697" duration="30"/>
    </trip>
    <trip id="63_train_R13:0" type="pt_train" depart="204.0" departLane="best" from="217122022" to="217122022">
        <stop busStop="7215417855" duration="30"/>
    </trip>
    <trip id="64_train_R13:1" type="pt_train" depart="218.0" departLane="best" from="216952581" to="216952581">
        <stop busStop="7215417857" duration="30"/>
    </trip>
    <trip id="65_train_R14:1" type="pt_train" depart="222.0" departLane="best" from="216952581" to="216952581">
        <stop busStop="7215417857" duration="30"/>
    </trip>
    <trip id="66_train_R15:1" type="pt_train" depart="227.0" departLane="best" from="217122022" to="217122022">
        <stop busStop="7215417855" duration="30"/>
    </trip>
    <trip id="67_bus_H16:1" type="pt_bus" depart="227.0" departLane="best" from="591631503#0" to="237787045#0">
        <stop busStop="5603006495" duration="30"/>
    </trip>
    <trip id="68_bus_D20:1" type="pt_bus" depart="228.0" departLane="best" from="4079513#0" to="291731094#6">
        <stop busStop="5609791814" duration="30"/>
    </trip>
    <trip id="69_bus_N0:0" type="pt_bus" depart="237.0" departLane="best" from="283764984#0" to="-4079513#0">
    </trip>
    <trip id="70_bus_N0:1" type="pt_bus" depart="239.0" departLane="best" from="4079513#0" to="293858825">
        <stop busStop="5609791813" duration="30"/>
    </trip>
    <trip id="71_bus_N1:0" type="pt_bus" depart="253.0" departLane="best" from="532696001#0" to="237522644#2">
        <stop busStop="5760480286" duration="30"/>
    </trip>
    <trip id="72_bus_N1:1" type="pt_bus" depart="253.0" departLane="best" from="1110435370#0" to="545747635#2">
        <stop busStop="5274384898" duration="30"/>
    </trip>
    <trip id="73_bus_N2:0" type="pt_bus" depart="253.0" departLane="best" from="532696001#0" to="237522644#2">
        <stop busStop="5760480286" duration="30"/>
    </trip>
    <trip id="74_bus_N2:1" type="pt_bus" depart="260.0" departLane="best" from="1110435370#0" to="545747635#2">
        <stop busStop="5274384898" duration="30"/>
    </trip>
    <trip id="75_bus_N3:0" type="pt_bus" depart="262.0" departLane="best" from="1112801410#0" to="237522644#2">
        <stop busStop="8210119843" duration="30"/>
    </trip>
    <trip id="76_bus_N3:1" type="pt_bus" depart="272.0" departLane="best" from="1110435370#0" to="491295302#7">
        <stop busStop="5274384898" duration="30"/>
    </trip>
    <trip id="77_bus_N5:0" type="pt_bus" depart="275.0" departLane="best" from="295263590" to="295263589#4">
        <stop busStop="5603009322" duration="30"/>
    </trip>
    <trip id="78_bus_N5:1" type="pt_bus" depart="285.0" departLane="best" from="449991617#0" to="295263590">
        <stop busStop="8214234925" duration="30"/>
    </trip>
    <trip id="79_bus_N6:0" type="pt_bus" depart="291.0" departLane="best" from="126301387#0" to="293858825">
        <stop busStop="5609793224" duration="30"/>
    </trip>
    <trip id="80_bus_N6:1" type="pt_bus" depart="300.0" departLane="best" from="283764984#0" to="295263589#4">
        <stop busStop="5603006497" duration="30"/>
    </trip>
    <trip id="81_bus_N7:0" type="pt_bus" depart="303.0" departLane="best" from="449991617#0" to="295263589#4">
        <stop busStop="8214234925" duration="30"/>
    </trip>
    <trip id="82_bus_N7:1" type="pt_bus" depart="305.0" departLane="best" from="68506233#0" to="491295302#7">
        <stop busStop="6123166500" duration="30"/>
    </trip>
    <trip id="83_bus_N8:0" type="pt_bus" depart="310.0" departLane="best" from="1112801410#0" to="293858825">
        <stop busStop="8210119843" duration="30"/>
    </trip>
    <trip id="84_bus_N8:1" type="pt_bus" depart="317.0" departLane="best" from="283764984#0" to="491295302#7">
        <stop busStop="5603006497" duration="30"/>
    </trip>
    <trip id="85_bus_N9:0" type="pt_bus" depart="318.0" departLane="best" from="905380775" to="237522644#2">
        <stop busStop="8372241999" duration="30"/>
    </trip>
    <trip id="86_bus_N9:1" type="pt_bus" depart="321.0" departLane="best" from="449991617#0" to="905380775">
        <stop busStop="8214234925" duration="30"/>
    </trip>
    <trip id="87_bus_N11:0" type="pt_bus" depart="322.0" departLane="best" from="126304603#2" to="237787045#0">
        <stop busStop="5711282950" duration="30"/>
    </trip>
    <trip id="88_bus_N11:1" type="pt_bus" depart="323.0" departLane="best" from="519375847#1" to="8380812#2">
        <stop busStop="2989714854" duration="30"/>
    </trip>
    <trip id="89_bus_N12:0" type="pt_bus" depart="323.0" departLane="best" from="359739475#0" to="545747635#2">
        <stop busStop="2610196515" duration="30"/>
    </trip>
    <trip id="90_bus_N12:1" type="pt_bus" depart="326.0" departLane="best" from="532696001#0" to="291731094#6">
        <stop busStop="5760480286" duration="30"/>
    </trip>
    <trip id="91_bus_N13:0" type="pt_bus" depart="329.0" departLane="best" from="519375847#1" to="545747635#2">
        <stop busStop="2989714853" duration="30"/>
    </trip>
    <trip id="92_bus_N13:1" type="pt_bus" depart="331.0" departLane="best" from="532696001#0" to="237522644#2">
        <stop busStop="5760480286" duration="30"/>
    </trip>
    <trip id="93_bus_N14:0" type="pt_bus" depart="334.0" departLane="best" from="542956873" to="243591204#3">
        <stop busStop="8634928230" duration="30"/>
        <stop busStop="5609793223" duration="30"/>
    </trip>
    <trip id="94_bus_N14:1" type="pt_bus" depart="336.0" departLane="best" from="532696001#0" to="542956873">
        <stop busStop="5760480286" duration="30"/>
    </trip>
    <trip id="95_bus_N15:0" type="pt_bus" depart="346.0" departLane="best" from="519375847#1" to="545747635#2">
        <stop busStop="2989714853" duration="30"/>
    </trip>
    <trip id="96_bus_N15:1" type="pt_bus" depart="350.0" departLane="best" from="532696001#0" to="237787045#0">
        <stop busStop="5760480286" duration="30"/>
    </trip>
    <trip id="97_bus_N16:0" type="pt_bus" depart="352.0" departLane="best" from="542956873" to="243591204#3">
        <stop busStop="8634928230" duration="30"/>
        <stop busStop="5609793223" duration="30"/>
    </trip>
    <trip id="98_bus_N16:1" type="pt_bus" depart="353.0" departLane="best" from="532696001#0" to="542956873">
        <stop busStop="5760480286" duration="30"/>
    </trip>
    <trip id="99_bus_N17:0" type="pt_bus" depart="362.0" departLane="best" from="126304603#2" to="545747635#2">
        <stop busStop="5711282950" duration="30"/>
    </trip>
    <trip id="100_bus_N17:1" type="pt_bus" depart="365.0" departLane="best" from="532696001#0" to="126304603#2">
        <stop busStop="5760480286" duration="30"/>
    </trip>
    <trip id="101_bus_N18:0" type="pt_bus" depart="365.0" departLane="best" from="126304603#2" to="545747635#2">
        <stop busStop="8425080822" duration="30"/>
    </trip>
    <trip id="102_bus_N18:1" type="pt_bus" depart="371.0" departLane="best" from="532696001#0" to="126304603#2">
        <stop busStop="5760480286" duration="30"/>
    </trip>
    <trip id="103_bus_N28:0" type="pt_bus" depart="376.0" departLane="best" from="532696001#0" to="291731094#6">
        <stop busStop="5760480286" duration="30"/>
    </trip>
    <trip id="104_bus_N28:1" type="pt_bus" depart="381.0" departLane="best" from="359739475#0" to="545747635#2">
        <stop busStop="2610196515" duration="30"/>
    </trip>
    <trip id="105_bus_H14:0" type="pt_bus" depart="383.0" departLane="best" from="4079513#0" to="237787045#0">
    </trip>
    <trip id="106_bus_H14:1" type="pt_bus" depart="383.0" departLane="best" from="134547872#0" to="-4079513#0">
        <stop busStop="8143303452" duration="30"/>
    </trip>
    <trip id="107_bus_V11:0" type="pt_bus" depart="383.0" departLane="best" from="237649293#0" to="237655878#0">
    </trip>
    <trip id="108_bus_V11:1" type="pt_bus" depart="384.0" departLane="best" from="237506930#0" to="246638748#2">
        <stop busStop="8097436670" duration="30"/>
    </trip>
    <trip id="109_bus_V13:0" type="pt_bus" depart="388.0" departLane="best" from="126304603#2" to="491295302#7">
        <stop busStop="5711282950" duration="30"/>
        <stop busStop="5609793223" duration="30"/>
    </trip>
    <trip id="110_bus_V13:1" type="pt_bus" depart="389.0" departLane="best" from="1112801410#0" to="126304603#2">
        <stop busStop="8210119843" duration="30"/>
    </trip>
    <trip id="111_bus_V15:0" type="pt_bus" depart="389.0" departLane="best" from="359739475#0" to="295263589#4">
        <stop busStop="2610196515" duration="30"/>
    </trip>
    <trip id="112_bus_V15:1" type="pt_bus" depart="393.0" departLane="best" from="449991617#0" to="291731094#6">
        <stop busStop="8214234925" duration="30"/>
    </trip>
    <trip id="113_bus_B20:0" type="pt_bus" depart="406.0" departLane="best" from="546184103#0" to="237787045#0">
        <stop busStop="5278388752" duration="30"/>
    </trip>
    <trip id="114_bus_V17:0" type="pt_bus" depart="409.0" departLane="best" from="-4752296#6" to="237787045#0">
        <stop busStop="-30317892" duration="30"/>
    </trip>
    <trip id="115_bus_V17:1" type="pt_bus" depart="410.0" departLane="best" from="519375848#0" to="4752296#6">
        <stop busStop="8220384273" duration="30"/>
    </trip>
    <trip id="116_bus_19:0" type="pt_bus" depart="418.0" departLane="best" from="-126301387#1" to="-126301387#1">
        <stop busStop="-5760480311" duration="30"/>
    </trip>
    <trip id="117_bus_19:1" type="pt_bus" depart="422.0" departLane="best" from="519375847#1" to="-126301387#1">
        <stop busStop="-5760480311" duration="30"/>
    </trip>
    <trip id="118_bus_22:0" type="pt_bus" depart="432.0" departLane="best" from="519375847#1" to="295263589#4">
        <stop busStop="8248379225" duration="30"/>
    </trip>
    <trip id="119_bus_22:1" type="pt_bus" depart="437.0" departLane="best" from="519375848#0" to="519375847#1">
        <stop busStop="8248379225" duration="30"/>
    </trip>
    <trip id="122_bus_24:0" type="pt_bus" depart="441.0" departLane="best" from="8380812#2" to="237522644#2">
        <stop busStop="2989714853" duration="30"/>
    </trip>
    <trip id="123_bus_24:1" type="pt_bus" depart="456.0" departLane="best" from="295268540#0" to="8380812#2">
        <stop busStop="2989714853" duration="30"/>
    </trip>
    <trip id="124_bus_47:0" type="pt_bus" depart="457.0" departLane="best" from="359739475#0" to="237787045#0">
        <stop busStop="2610196515" duration="30"/>
    </trip>
    <trip id="125_bus_47:1" type="pt_bus" depart="459.0" departLane="best" from="519375848#0" to="291731094#6">
        <stop busStop="8220384273" duration="30"/>
    </trip>
    <trip id="126_bus_54:0" type="pt_bus" depart="465.0" departLane="best" from="1112801410#0" to="546148432#2">
        <stop busStop="8210119843" duration="30"/>
    </trip>
    <trip id="127_bus_54:1" type="pt_bus" depart="467.0" departLane="best" from="1110435370#0" to="491295302#7">
        <stop busStop="5274384898" duration="30"/>
    </trip>
    <trip id="128_bus_55:0" type="pt_bus" depart="475.0" departLane="best" from="591631503#0" to="20475905#2">
        <stop busStop="5603006495" duration="30"/>
    </trip>
    <trip id="129_bus_55:1" type="pt_bus" depart="483.0" departLane="best" from="68506233#0" to="246638748#2">
        <stop busStop="6123166500" duration="30"/>
    </trip>
    <trip id="130_bus_59:0" type="pt_bus" depart="484.0" departLane="best" from="532696001#0" to="291731094#6">
        <stop busStop="5760480286" duration="30"/>
    </trip>
    <trip id="131_bus_59:1" type="pt_bus" depart="485.0" departLane="best" from="359739475#0" to="545747635#2">
        <stop busStop="2610196515" duration="30"/>
    </trip>
    <trip id="132_bus_63:0" type="pt_bus" depart="497.0" departLane="best" from="237522641#1" to="491295302#7">
        <stop busStop="8274427613" duration="30"/>
    </trip>
    <trip id="133_bus_63:1" type="pt_bus" depart="498.0" departLane="best" from="449991617#0" to="237522641#1">
        <stop busStop="8214234925" duration="30"/>
    </trip>
    <trip id="134_bus_L95:0" type="pt_bus" depart="505.0" departLane="best" from="542956873" to="243591204#3">
        <stop busStop="8634928230" duration="30"/>
    </trip>
    <trip id="135_bus_L95:1" type="pt_bus" depart="508.0" departLane="best" from="532696001#0" to="542956873">
        <stop busStop="5760480286" duration="30"/>
    </trip>
    <trip id="136_bus_120:0" type="pt_bus" depart="516.0" departLane="best" from="591631503#0" to="237787045#0">
        <stop busStop="5603006495" duration="30"/>
    </trip>
    <trip id="137_bus_120:1" type="pt_bus" depart="517.0" departLane="best" from="22658522#0" to="246638748#2">
        <stop busStop="8328305429" duration="30"/>
    </trip>
    <trip id="138_bus_121:0" type="pt_bus" depart="522.0" departLane="best" from="237529472#1" to="246638748#2">
        <stop busStop="2536484166" duration="30"/>
    </trip>
    <trip id="139_bus_121:1" type="pt_bus" depart="523.0" departLane="best" from="237649293#0" to="237529472#1">
    </trip>
    <trip id="140_bus_67:1" type="pt_bus" depart="525.0" departLane="best" from="126304603#2" to="491295302#7">
        <stop busStop="5711282950" duration="30"/>
    </trip>
    <trip id="141_bus_A2:0" type="pt_bus" depart="525.0" departLane="best" from="532696001#0" to="20045639#2">
        <stop busStop="1474608404" duration="30"/>
    </trip>
    <trip id="142_bus_A1:0" type="pt_bus" depart="526.0" departLane="best" from="532696001#0" to="1106220054">
        <stop busStop="1474608404" duration="30"/>
    </trip>
    <trip id="143_bus_N81:0" type="pt_bus" depart="527.0" departLane="best" from="519375848#0" to="519375847#1">
        <stop busStop="5364626633" duration="30"/>
    </trip>
    <trip id="144_bus_C6:1" type="pt_bus" depart="535.0" departLane="best" from="519375848#0" to="542956873">