<?xml version="1.0" encoding="UTF-8"?>

<!-- generated on 2024-06-24 12:40:32.327666 by osmWebWizard.py v1_19_0+0000-baa66a0f364
<configuration>
    <net-file value="C:\Users\Jaime\Sumo\2024-06-24-12-40-15\osm.net.xml.gz"/>
    <additional-files value="C:\Users\Jaime\Sumo\2024-06-24-12-40-15\osm_stops.add.xml,C:\Users\Jaime\Sumo\2024-06-24-12-40-15\osm_pt.rou.xml"/>
    <output-trip-file value="C:\Users\Jaime\Sumo\2024-06-24-12-40-15\osm.pedestrian.trips.xml"/>
    <route-file value="C:\Users\Jaime\Sumo\2024-06-24-12-40-15\osm.pedestrian.rou.xml"/>
    <persontrips value="True"/>
    <persontrip.walk-opposite-factor value="0.8"/>
    <prefix value="ped"/>
    <trip-attributes value="modes=&quot;public&quot;"/>
    <vehicle-class value="pedestrian"/>
    <fringe-factor value="1"/>
    <end value="2000.0"/>
    <insertion-density value="10.0"/>
</configuration>
-->

<!-- generated on 2024-06-24 12:40:31 by Eclipse SUMO duarouter Version 1.19.0
<configuration xmlns:xsi="http://www.w3.org/2001/XMLSchema-instance" xsi:noNamespaceSchemaLocation="http://sumo.dlr.de/xsd/duarouterConfiguration.xsd">

    <input>
        <net-file value="C:\Users\Jaime\Sumo\2024-06-24-12-40-15\osm.net.xml.gz"/>
        <additional-files value="C:\Users\Jaime\Sumo\2024-06-24-12-40-15\osm_stops.add.xml,C:\Users\Jaime\Sumo\2024-06-24-12-40-15\osm_pt.rou.xml"/>
        <route-files value="C:\Users\Jaime\Sumo\2024-06-24-12-40-15\osm.pedestrian.trips.xml"/>
    </input>

    <output>
        <output-file value="C:\Users\Jaime\Sumo\2024-06-24-12-40-15\osm.pedestrian.rou.xml"/>
        <alternatives-output value="NUL"/>
    </output>

    <processing>
        <persontrip.walk-opposite-factor value="0.8"/>
    </processing>

    <time>
        <begin value="0.0"/>
        <end value="2000.0"/>
    </time>

    <report>
        <no-warnings value="true"/>
        <ignore-errors value="true"/>
        <no-step-log value="true"/>
    </report>

</configuration>
-->

<routes xmlns:xsi="http://www.w3.org/2001/XMLSchema-instance" xsi:noNamespaceSchemaLocation="http://sumo.dlr.de/xsd/routes_file.xsd">
    <vType id="ped_pedestrian" vClass="pedestrian"/>
    <person id="ped0" type="ped_pedestrian" depart="0.00">
        <walk edges="26733828#1 181587285 1088515826#1 1088718158#1 1088718158#2 1088718158#3 1222915687#1 -1156321910#1"/>
    </person>
    <person id="ped1" type="ped_pedestrian" depart="3.58">
        <walk edges="1132411882#3 1152979769#3 915958602#1 915958602#2 915958605#3 1171464776#1 1152979766#0 915958612#3 882389496#1 882389496#0 1158551336#4 1158551336#3 1124928840#0 915958611#1" busStop="8170794617"/> <!-- Unter den Linden -->
        <ride busStop="3869306769" lines="U6:0" intended="pt_subway_U6:0.0" depart="460.00"/> <!-- Friedrichstraße -->
        <walk edges="1134014824#3 1134014824#2 1134014824#1 1134014824#0 1134014823 1087301107#3 1087301107#2 1087301107#1 1087301107#0 1087301108#0"/>
    </person>
    <person id="ped2" type="ped_pedestrian" depart="7.16">
        <walk edges="378150074#0 465218216 465218218 465218213 465218214 607001337 1151064388#1 378150067#1 378150067#0 196845298#2 196845298#1 237526578#0" busStop="29805120"/> <!-- Berlin Friedrichstraße -->
        <ride busStop="2776873647" lines="RB23:0" intended="pt_train_RB23:0.0" depart="233.00"/> <!-- Berlin Alexanderplatz -->
        <walk edges="169195791#1 169195791#2 687804455#2 312392972#2"/>
    </person>
    <person id="ped3" type="ped_pedestrian" depart="10.74">
        <walk edges="68647306#4 803471186 205728152#6" busStop="271296293"/> <!-- Staatsoper -->
        <walk edges="442389818#1 699041686#3 699041686#2 699041686#1 699041686#0 -330840134#2 -330840134#1 -340498976#9"/>
    </person>
    <person id="ped4" type="ped_pedestrian" depart="14.33">
        <walk edges="1215087308#1 100113531 1097921385#3 1097921385#4 1097921385#5 603204007#1 222470308 1212138765 1157108517 475297966#0 475297966#1 1157108519#3 47986664#4 47986664#3 47986664#2 47986664#1 47986664#0 304514893#4 280007140#3 47986658#1 47986658#0 475297457#0 475297457#1 475297457#2 170302412#0 48664687#0 48664687#1 48664687#2 48664687#3 1071210926#7 1071210926#8 1071210926#9 1071210926#10 1071210926#11 1071210926#12 1071210926#14 -1157270240#0"/>
    </person>
    <person id="ped5" type="ped_pedestrian" depart="17.91">
        <walk edges="1087301102#1 1087301102#0 1088754429 1088748335#5 1088754428#0 1088754428#1 1088754428#2 1264428815 -4610479#2 -35578557#2 -83517339 1119837507#0 131765141#2 132460631#0"/>
    </person>
    <person id="ped6" type="ped_pedestrian" depart="21.49">
        <walk edges="-1157111068#0 1071049526#2 1071049526#3 1079045026#1 1079045026#0 1079045033 1079045034#1 -62363402 -234463928#1 -234463928#0 -1121012037#0 -234463931#0 -1110526068 -1102369940#1 -1102369940#0 -25294728#0 -1157108522#1 288005050#3 288005050#4 1226763981#2 1226763980 1097921390#0 1097921390#1 1097921390#2 1212138773 15971191#1 15971191#0 553649892 4610599 708628328 -202156991 -1102369942 -339201177#5 -339201177#4 -339201177#3 -339201177#2 -339201177#1 -339201177#0 -15971189 4610480#1 35578557#2 -4610479#2 1264428815 1088754428#2 1088754428#1 1088754428#0 1088748335#5 1088748335#4 1077812495#0"/>
    </person>
    <person id="ped7" type="ped_pedestrian" depart="25.07">
        <walk edges="274524377#1 254523882 254523906#1 254523906#0 254523877 335576644#0 335576648#0 237520773#2 254523901#1 254523901#0 254523897 254523912#0 254523912#1 335704571 254523888#0 465376259#1 465376261#1 465376242#0 465376242#1 11483007#0 169999355#1 1158551332#3 1158551341#1 1158551341#0 1124928841#6 1124928841#5 1124928841#4 1124928841#3 1124928841#2 915958620#2 915958620#1" busStop="8087330616"/> <!-- Unter den Linden -->
        <ride busStop="7974955393" lines="U5:0" intended="pt_subway_U5:0.1" depart="672.00"/> <!-- Museumsinsel -->
        <walk edges="1173675376#6 194962998#6 -120675240#4 175192743#2 175192743#1 175192743#0"/>
    </person>
    <person id="ped8" type="ped_pedestrian" depart="28.65">
        <walk edges="1087301106#3 1088754427#0 1088754427#1 1088748335#11 1088748335#1 1088748335#2 1088748335#3 1088748335#4 1088748335#5 1088754428#0 1088754428#1 1088754428#2 1264428815 -4610479#2 35578557#2 4610480#1 -15971189 -339201177#0 -339201177#1 -339201177#2 -339201177#3 553649891#0 553649890 553121559 133885750#0 133885750#1 -133885745#0 -202157031#5 -202157031#4 -133885743#1 230015283 230015280 230015278 230015285 230015277 437500506 230015276"/>
    </person>
    <person id="ped9" type="ped_pedestrian" depart="32.23">
        <walk edges="465376245#1 1087301089 194073677#0 194073677#1 194073677#3 194073677#4 465376260#1 465376259#1 465376261#1 465376242#0 465376242#1 11483007#0 -111833185#1 -111833185#0"/>
    </person>
    <person id="ped10" type="ped_pedestrian" depart="35.81">
        <walk edges="46517262#3 46517262#2 46517262#1 46517262#0 170098545#4 170098545#3 170098545#2 475297968#4 475297968#2 475297968#1 475297968#0 304514893#2 280007142#4 280007142#3 280007142#2 377110622#3" busStop="1745157971"/> <!-- Hackescher Markt -->
        <ride busStop="2603331695" lines="S5:0" intended="pt_light_rail_S5:0.0" depart="216.00"/> <!-- Friedrichstraße -->
        <walk edges="335043665#2 254523876 254523899 335703512 335703509 335576646#4 335576646#3 335576646#2 335576646#1 335576646#0 335576640"/>
    </person>
    <person id="ped11" type="ped_pedestrian" depart="39.40">
        <walk edges="1158764597 -4610374#2 -4610374#3 168940071#5 168940071#6 168940071#7 1134016144#1 1134016144#0 1134016143 1087301104 -465376254#3 -465376254#2 -1151064402#1 -4402228 465376260#1 465376259#1 465376261#1 465376242#0 465376242#1 11483007#0 -1119933622 1158551333#1 1158551334 1158551335#1 1158551336#0 1158551336#1 1158551336#2 1158551336#3 1158551336#4 1158551336#5 915958610#0 1158551342#1 1037138981#1"/>
    </person>
    <person id="ped12" type="ped_pedestrian" depart="42.98">
        <walk edges="886176764#1 153698402#2 153698402#3 -1134013286 -195105328 -1151064407#2 -1151064407#0 -1151064405#0 1087301105#1 1087301107#3 1087301107#2 1087301107#1 1087301107#0 1087301108#0 1087301108#1 -1158584612#0 1158584612#0"/>
    </person>
    <person id="ped13" type="ped_pedestrian" depart="46.56">
        <walk edges="-410310755#2 463829469#2 -15977422#1 1088754431#2 1089020536#0 -24243092#1 -24243092#2 195397561#6 195397561#4 516398559 1134014824#3" busStop="3869306764"/> <!-- S+U Friedrichstraße -->
        <walk edges="-4402228"/>
    </person>
    <person id="ped14" type="ped_pedestrian" depart="50.14">
        <walk edges="517220246#1 -1249845307 -1171475738#1 1232425171 1232425168#2 1232425168#3 1232425168#4 465376251#1 465376251#0 374734394#5 690327002#3 690327002#1 690327002#0 1087301101#1 168940071#7 168940071#6 168940071#5 168940071#4 168940071#3 168940071#2 168940071#1 4610375#0 -507023458#1 -507023458#0 51167934#6 51167934#7 51167934#8 137630046 23852035#0 23852035#1"/>
    </person>
    <person id="ped15" type="ped_pedestrian" depart="53.72">
        <walk edges="465218213 465218214 607001337 1151064388#1 378150067#1 378150067#0 196845298#2 196845298#1 237520773#8 237520773#7 237520773#6 237520773#5 237520773#4 237520773#3 254523901#1" busStop="27412232"/> <!-- Friedrichstraße -->
        <ride busStop="27411240" lines="S5:1" intended="pt_light_rail_S5:1.0" depart="209.00"/> <!-- Hackescher Markt -->
        <walk edges="377110621#0 377110617 377110622#1 280007142#4 304514893#2 475297968#0 475297968#1 475297968#2 475297968#4 170098545#2 170098545#3 170098545#4 46517262#0 46517262#1 46517262#2 46517262#3 46517262#4 46517262#5 46517262#6 46517262#7 1097921386#1 1097921386#0 1097921384#0 1097921384#1 1097921384#2 1097921384#3 1097921384#4" busStop="2915590925"/> <!-- Spandauer Straße/Marienkirche -->
        <walk edges="473149642 375901779#1"/>
    </person>
    <person id="ped16" type="ped_pedestrian" depart="57.30">
        <walk edges="170392872 -170370361#0 1291337368 170098545#2 475297968#4 475297968#2 475297968#1 475297968#0 304514893#2 280007142#4 280007142#3 280007142#2 377110622#3" busStop="1745157971"/> <!-- Hackescher Markt -->
        <ride busStop="2603331695" lines="S5:0" intended="pt_light_rail_S5:0.0" depart="216.00"/> <!-- Friedrichstraße -->
        <walk edges="194073677#3 194073677#1 422002325 237520773#1 237520773#2 237520773#3 237520773#4 237520773#5 237520773#6 237520773#7 237520773#8 196845298#1 196845298#2 440946429 688761154#0 1151064408#0 292429063#0 1151064410 292429062#3 292429062#2 292429062#1 292429062#0 -153698380#2 1171464773#1 1171464775#0 1171464775#1 1171464775#2 1152979769#1 915958602#3 915958605#3"/>
    </person>
    <person id="ped17" type="ped_pedestrian" depart="60.88">
        <walk edges="1173733854#31 1174259940#4 1173723266#19 1174259940#2 1170011369#2 1056367957#0 1170011367#0 1254634274#0 1254634274#1 1254634273#1 1254634273#2 383505780#1 -383505780#2" busStop="3867910420"/> <!-- U Museumsinsel -->
        <ride busStop="272408975" lines="100:0" intended="pt_bus_100:0.0" depart="327.00"/> <!-- U Unter den Linden -->
        <walk edges="883691541#5 883691541#4 881245040 915958585 1158551336#4 1158551336#5 915958610#0 1037130999#4 196850626#0 194069449#1"/>
    </person>
    <person id="ped18" type="ped_pedestrian" depart="64.47">
        <walk edges="4840977#0 202157024#0 202157024#1 1097921389 437500499#0 15971191#1 1212138773 1097921390#3 1097921390#4 1097921390#5 1128296358#0 1128296358#1 1128296358#2 1128296358#3 31959089 47986661#0 275008387#0 275008387#1" busStop="1745157971"/> <!-- Hackescher Markt -->
        <ride busStop="2603331695" lines="S9:0" intended="pt_light_rail_S9:0.0" depart="480.00"/> <!-- Friedrichstraße -->
        <walk edges="194073677#3 194073677#1 422002325 237520773#1 237520773#2 237520773#3 237520773#4 237520773#5 237520773#6 237520773#7 254339591#0"/>
    </person>
    <person id="ped19" type="ped_pedestrian" depart="68.05">
        <walk edges="561816966 803471195#1 803471195#2 377215961#2 -1101961674#3 -1101961674#4 -1101961735#0 -1101961737 -15971189 -339201177#0 -339201177#1 -339201177#2 -339201177#3 553649891#0 553649890 553121559 133885750#0 133885750#1 -133885745#0 -202157031#5 -202157031#4 202157031#3"/>
    </person>
    <person id="ped20" type="ped_pedestrian" depart="71.63">
        <walk edges="335703511#0 335576646#2 335576646#3 254523912#0 254523897 254523901#0 254523901#1" busStop="27412232"/> <!-- Friedrichstraße -->
        <ride busStop="27411240" lines="S5:1" intended="pt_light_rail_S5:1.0" depart="209.00"/> <!-- Hackescher Markt -->
        <walk edges="377110614 377110615 377110622#3 280007142#1 475297967#0 275008387#0 47986661#0 31959089 1128296358#3 1128296358#2 1128296358#1 1128296358#0 1097921390#5 -1225731572#1"/>
    </person>
    <person id="ped21" type="ped_pedestrian" depart="75.21">
        <walk edges="1088748335#2 1088748335#1 1088748335#11 1088754427#1 1088754427#0 1087301106#3 1087301106#2 1087301106#1 1087301108#1 1087301108#0 1087301107#0 1087301107#1 1087301107#2 1087301107#3 1087301105#1 1087301090#0 1134014825 -153698390#2 -705182550 -1155226001#0 -1134722788 1134722788"/>
    </person>
    <person id="ped22" type="ped_pedestrian" depart="78.79">
        <walk edges="-30721660#3" busStop="1661927028"/> <!-- Monbijouplatz -->
        <walk edges="1158979785#4 1225731573#0 1225731573#1 1225731573#2 1225731573#4 1085398480#1 23809677#0 275008387#0 275008387#1" busStop="1745157971"/> <!-- Hackescher Markt -->
        <ride busStop="2603331695" lines="S3:0" intended="pt_light_rail_S3:0.0" depart="413.00"/> <!-- Friedrichstraße -->
        <walk edges="335043665#2 254523876 254523899 335703512 335703509 335576646#4 254523912#1 335704571 254523888#0 465376259#1" busStop="2792364395"/> <!-- Friedrichstraße -->
        <walk edges="422000253#1 38711947#1 38711947#2 -24243092#2 -24243092#1 1089020536#0 1088754431#2"/>
    </person>
    <person id="ped23" type="ped_pedestrian" depart="82.37">
        <walk edges="-4570580#1 -4570580#0 -4403559#4 -4403559#3 -4403559#2 -4403559#1 -4403559#0 169660686#1 25959593 82168025 82165083 82165084 465376246#1 1087301089 194073677#0 422002325 237520773#1 237520773#2 237520773#3 237520773#4 237520773#5 237520773#6 237520773#7 237520773#8 237526578#0" busStop="29805120"/> <!-- Berlin Friedrichstraße -->
        <ride busStop="2776873647" lines="RB23:0" intended="pt_train_RB23:0.1" depart="833.00"/> <!-- Berlin Alexanderplatz -->
        <walk edges="169195791#1 169195791#2 687804455#2 687804455#1 1228705386#2 1228705386#1 1055731557#1 1133457753#4 1133457753#3 1133457747#0 1133457747#1 1133457747#4 1133457740#1 1133457737#1"/>
    </person>
    <person id="ped24" type="ped_pedestrian" depart="85.95">
        <walk edges="260138641#1 1094398062 16873017#1 202157018#2 1029477075#2 1170013464 1056367957#4 1056367957#3 1056367957#2 1056367957#1 1056367957#0 1170011367#0 1170011367#1 1181092879#0 1181092879#1 1181092879#2" busStop="7974928190"/> <!-- Museumsinsel -->
        <ride busStop="8090274121" lines="U5:1" intended="pt_subway_U5:1.1" depart="784.00"/> <!-- Unter den Linden -->
        <walk edges="1158551336#1 882389495#1 915958612#5 1152979765#1 1171464773#1 1171464775#0 1171464775#1 1171464775#2"/>
    </person>
    <person id="ped25" type="ped_pedestrian" depart="89.54">
        <walk edges="1173675373#14 1174259940#6 1174259940#5 1173733854#30 1174259940#3 1173723266#17 1173723266#16 1173733854#10" busStop="3867910421"/> <!-- U Museumsinsel -->
        <walk edges="1224670640#1 1224670639#2 202157014#1 202157014#0 424344289 137630050 424344305 48095488 48095588#3 48095588#2 48095588#1 48095588#0 437500503 437500500 437500497 437500501 437500498 437500504#2 437500504#1 437500504#0 437500502 437500499#1 437500499#0 1112464787 1085398478 1225731570#2 1225731570#1 1085398477#4 1085398477#3 1257261406#0 1257261406#1 1158979785#4 1085398475#2 1085398475#1"/>
    </person>
    <person id="ped26" type="ped_pedestrian" depart="93.12">
        <walk edges="1126615536#2 1190913462 -104991251#0 -4610375#0 1088718158#3 1088718158#2 1088718158#1 570058775#1 1088515827#1 1088718161 1088540759#0 1088540759#1 1087301106#2 1087301106#1 1087301108#1 1087301108#0 1087301107#0 1087301107#1 1087301107#2 1087301107#3 1087301105#1 -1151064405#0 -1151064407#0 -194073677#0 -194073677#1 836424814"/>
    </person>
    <person id="ped27" type="ped_pedestrian" depart="96.70">
        <walk edges="274524371 254339598#0 237520773#4 237520773#3 254523901#1" busStop="27412232"/> <!-- Friedrichstraße -->
        <ride busStop="27411240" lines="S5:1" intended="pt_light_rail_S5:1.0" depart="209.00"/> <!-- Hackescher Markt -->
        <walk edges="1018271757 47986659 280007140#4 304514893#4 47986664#0 1225719333#0 1157108520#2 1157108520#1 1157108520#0 1157108519#6 288005046#4 288005046#3 288005046#2 288005046#1 25294728#0"/>
    </person>
    <person id="ped28" type="ped_pedestrian" depart="100.28">
        <walk edges="1070124293#1 1165383527#1 388702039#3" busStop="990017251"/> <!-- U Oranienburger Tor -->
        <ride busStop="247600965" lines="12:0" intended="pt_tram_12:0.0" depart="187.00"/> <!-- S+U Friedrichstraße -->
        <walk edges="175885745 1165367693#1 175885747 465376241#1 1124928836#1 1124928836#2 -11483007#2 169999355#1 1158551332#3 1158551341#1 1158551341#0 1124928841#6 1124928841#5 1124928841#4 1124928841#3 1124928841#2 915958620#2 915958620#1" busStop="8087330616"/> <!-- Unter den Linden -->
        <ride busStop="8196661136" lines="U5:0" intended="pt_subway_U5:0.1" depart="672.00"/> <!-- Rotes Rathaus -->
        <walk edges="169195164#1 1212793353 687804453#1 1212793352 606078068#1 1212793349#0 1212793349#1 375901776#7"/>
    </person>
    <person id="ped29" type="ped_pedestrian" depart="103.86">
        <walk edges="104786912#3 32786909 442389818#1 442389818#2 442389818#3 442389818#4 803471190#0 803471190#1 803471191#1 803471191#2 1048127663#1 1048127663#0 -383505780#2 -383505780#1 1254634273#2 1254634273#1 1254634274#1 1254634274#0 1170011367#1 974193167#1 974193165#2 1173733854#35"/>
    </person>
    <person id="ped30" type="ped_pedestrian" depart="107.44">
        <walk edges="942234134 -942234138#0 1088718158#1 570058775#1 1088515827#1 1088718161 1088540759#0 1088540759#1 1087301106#2 1087301106#1 1087301108#1 1087301108#0 1087301107#0 1087301107#1 1087301107#2 1087301107#3 1134014823 1134014824#0 1134014824#1 1134014824#2 -4402228 465376260#1 254523888#0 335704571 254523912#1 335576646#3 335576646#2 335703511#0 254523894 274513542"/>
    </person>
    <person id="ped31" type="ped_pedestrian" depart="111.02">
        <walk edges="194962998#2 1173675376#5 1173733854#0 1181092879#0 1170011367#1 1170011367#0 1056367957#0" busStop="3867910421"/> <!-- U Museumsinsel -->
        <ride busStop="768074068" lines="100:1" intended="pt_bus_100:1.0" depart="347.00"/> <!-- S+U Alexanderplatz/Memhardstraße -->
        <walk edges="1079045029#1 459651197 1079045030#0 1071114543#1 1071049522#6 -510625575#0 320454751"/>
    </person>
    <person id="ped32" type="ped_pedestrian" depart="114.61">
        <walk edges="51167934#1 51167934#2 51167934#3 51167934#4 51167934#5 507023458#0 507023458#1 4610375#0 168940071#1 168940071#2 168940071#3 168940071#4 168940071#5 168940071#6 168940071#7 1087301101#1 1087301100#1 1087301098#1" busStop="990017251"/> <!-- U Oranienburger Tor -->
        <ride busStop="247600965" lines="12:0" intended="pt_tram_12:0.1" depart="787.00"/> <!-- S+U Friedrichstraße -->
        <walk edges="465376242#0 465376242#1 -1123106322#1 -158023913#1 -1123106898#1 -1123106898#0 -292429062#3 1072225300 327519012#2 327519010#1 327519010#2 327519012#6 456400035 456400037#2 -1119938072#0 -1119938072#1 4402037#2"/>
    </person>
    <person id="ped33" type="ped_pedestrian" depart="118.19">
        <walk edges="1088748335#7 1088748335#6 1088748335#5 1088754429 1087301102#0 -25945967#0 -23852035#1 -23852035#0 -23852032 -51167934#8 51236794 31959086#1 31959086#0 181587286#2 1126615460 51167566#0 910539513 51167562#3 51167562#2 51167562#1 51167562#0 -1157383114#2 -1157383114#1 1157384566#1 533594855#1 533594855#2 -30721660#4 -30721660#3 -1157384569#0"/>
    </person>
    <person id="ped34" type="ped_pedestrian" depart="121.77">
        <walk edges="1157108530 1079045024 1079045025#1 1079045025#0 1079045033 1079045034#1 1079045034#0 288005046#6 1225719336#0 4613101#3 1071210926#6 1071210926#7 59286500#4 59286500#3 59286500#2 1192158309#1 1192158308 1212138779#5 1212138779#4 1212138779#3 1212138779#2 1157347098#1 1157347099#2 1085398475#2 1085398475#3 533594855#3 533594855#2 533594855#1 533594855#0 803483082#0 803483082#1 -51167934#1 1126615536#3 1126615536#2 1126615537 1126615538"/>
    </person>
    <person id="ped36" type="ped_pedestrian" depart="128.93">
        <walk edges="574993713#0 288005046#5 288005046#6 1079045034#0 1079045034#1 1079045033 1079045026#0 1079045026#1 1071114543#0 1079045030#1 1071049522#8 1157108528#0"/>
    </person>
    <person id="ped37" type="ped_pedestrian" depart="132.51">
        <walk edges="280007139#1 170062886 280007142#2 377110622#3" busStop="1745157971"/> <!-- Hackescher Markt -->
        <ride busStop="2603331695" lines="S5:0" intended="pt_light_rail_S5:0.0" depart="216.00"/> <!-- Friedrichstraße -->
        <walk edges="335043665#2 254523876 254523899 335703512 335703509 335576646#4 254523912#1 335704571 254523888#0 465376259#1" busStop="2792364395"/> <!-- Friedrichstraße -->
        <ride busStop="8170769020" lines="U6:1" intended="pt_subway_U6:1.1" depart="784.00"/> <!-- Unter den Linden -->
        <walk edges="463898977#5 1228768557#4 463898977#3 463898977#2 463898977#1 1190781971#1"/>
    </person>
    <person id="ped38" type="ped_pedestrian" depart="136.09">
        <walk edges="729659094 729659097 729659096 51167562#3 910539513 51167566#0 1126615460 181587286#2 31959086#0 31959086#1 51236794 51167934#8 181587281 339201225 181587282 26733828#0 26733828#1 181587285 1088515826#1 570058775#1 1088515827#1 1088718161 1088540759#0 1088540759#1 1087301106#2 1087301106#1 1087301108#1 1087301108#0 1087301107#0 1087301107#1 1087301107#2 1087301107#3 1134014823 1134014824#0 1134014824#1 1134014824#2 1134014824#3 465376258#1 422000253#1" busStop="2792364395"/> <!-- Friedrichstraße -->
        <ride busStop="8170769020" lines="U6:1" intended="pt_subway_U6:1.2" depart="1084.00"/> <!-- Unter den Linden -->
        <walk edges="463898977#5 1228768557#4 463898977#3 1228768561#1"/>
    </person>
    <person id="ped39" type="ped_pedestrian" depart="139.68">
        <walk edges="1126465703#1 4611694#1 1215085513#1 1181092879#2 1181092879#1 1173733854#1 1254634274#1 1254634273#1 1254634273#2 -383505780#0 1159462966 23121445#5 23121445#4 23121445#3 23121445#2 23121445#1 23121445#0 1102369942"/>
    </person>
    <person id="ped40" type="ped_pedestrian" depart="143.26">
        <walk edges="195397561#1 1087301108#0 1087301107#0 1087301107#1 1087301107#2 1087301107#3 1134014823 1134014824#0 1134014824#1 1134014824#2 1134014824#3 465376258#1 422000253#1" busStop="2792364395"/> <!-- Friedrichstraße -->
        <ride busStop="8170769020" lines="U6:1" intended="pt_subway_U6:1.0" depart="484.00"/> <!-- Unter den Linden -->
        <walk edges="463898977#5 1158551342#1 915958610#0 1158551336#5 1158551336#4 1158551336#3 1158551336#2 1158551336#1 1158551336#0 1158551335#1 1158551334 1124934333#1"/>
    </person>
    <person id="ped41" type="ped_pedestrian" depart="146.84">
        <walk edges="226258269#1 969677817#1 1038014334 1038014331 1038014330#0 1038014330#1 1038014333 1038014332 974193164#2 974193164#1 974193164#0 899946810 1173733854#32 1173733854#31 1174259940#4 1173723266#19 1174259940#2 1170011369#2 1056367957#1 1056367957#2 1056367957#3 1056367957#4 1170013464 1006720290#1 1006720290#2 375901776#0 375901768#0 1212793336#1 687804449"/>
    </person>
    <person id="ped42" type="ped_pedestrian" depart="150.42">
        <walk edges="1199398235#1 1199398235#2 1174514169#2 1228674290#0 -120675240#2 -120675240#3 194962998#6 194962998#5 194962998#4 194962998#3 194962998#2 194962998#1 1181092879#2" busStop="7974928190"/> <!-- Museumsinsel -->
        <ride busStop="8090274121" lines="U5:1" intended="pt_subway_U5:1.1" depart="784.00"/> <!-- Unter den Linden -->
        <walk edges="1124928840#1 915958611#1" busStop="8170794617"/> <!-- Unter den Linden -->
        <ride busStop="3869306769" lines="U6:0" intended="pt_subway_U6:0.2" depart="1060.00"/> <!-- Friedrichstraße -->
        <walk edges="-4402228 -1151064402#1 -465376254#2 -465376254#3 1087301104"/>
    </person>
    <person id="ped43" type="ped_pedestrian" depart="154.00">
        <walk edges="974193168#1 974193168#0 899946807 969677817#1 969677817#0 899946808 974193167#0 974193167#1 1170011367#1 1254634274#0 1254634274#1 1254634273#1 1254634273#2 383505780#1 4773023#0 4773023#1 134021300#4 134021300#3 33207312#0 33207312#1 15968749#0 924828181 121717657#4 164874302 202157016 -339201177#3 553649891#0 553649890 553121559 133885750#0"/>
    </person>
    <person id="ped44" type="ped_pedestrian" depart="157.58">
        <walk edges="-409506038#1 -409507435#0 409506039#0 561049080 1199398235#2 1174514169#2 1228674290#0 -120675240#2 -120675240#3 194962998#6 194962998#5 194962998#4 194962998#3 194962998#2 194962998#1 1181092879#2" busStop="7974928190"/> <!-- Museumsinsel -->
        <ride busStop="8090274121" lines="U5:1" intended="pt_subway_U5:1.1" depart="784.00"/> <!-- Unter den Linden -->
        <walk edges="1124928840#1 915958611#1" busStop="8170794617"/> <!-- Unter den Linden -->
        <ride busStop="3869306769" lines="U6:0" intended="pt_subway_U6:0.2" depart="1060.00"/> <!-- Friedrichstraße -->
        <walk edges="-4402228 -1151064402#1 -465376254#2 -465376254#3 1087301090#0 1134014825 1087301094#1 1087301095#4 1087301095#3 690327002#4 374734394#5 465376251#0 465376251#1 1232425168#4 1232425168#3 1232425168#2 1232425171 1083757622#1 1243561432 -1243561432"/>
    </person>
    <person id="ped45" type="ped_pedestrian" depart="161.16">
        <walk edges="-474154190#1 1157384566#1" busStop="963600646"/> <!-- Monbijouplatz -->
        <ride busStop="1633759760" lines="M5:1" intended="pt_tram_M5:1.0" depart="280.00"/> <!-- S Hackescher Markt -->
        <walk edges="46517262#3 46517262#2 46517262#1 46517262#0 170098545#4 170098545#3 170098545#2 475297968#4 475297968#2 475297968#1 475297968#0 304514893#2 280007142#4 280007142#3 280007142#2 377110622#3" busStop="1745157971"/> <!-- Hackescher Markt -->
        <ride busStop="2603331695" lines="S5:0" intended="pt_light_rail_S5:0.1" depart="816.00"/> <!-- Friedrichstraße -->
        <walk edges="335043665#2 254523876 254523899 254523873 254523891"/>
    </person>
    <person id="ped46" type="ped_pedestrian" depart="164.75">
        <walk edges="4610480#1 -15971189 -339201177#0 -339201177#1 -339201177#2 -339201177#3 -339201177#4 -339201177#5 1102369942 202156991 708628328 4610599 553649892 15971191#0 437500499#0 1097921389 1097921391 1097921386#0 1097921384#0 1097921384#1 1215087304#1 1215087305#1 1215087310"/>
    </person>
    <person id="ped47" type="ped_pedestrian" depart="168.33">
        <walk edges="-195089288#1 -195088845 1228768554#0 1228768557#1 1228768557#2 104567844#1 1228768557#4 1228768557#5 1228768557#6 196850626#1 196850626#0 1037130999#3 1037130999#2 1037130999#1" busStop="3869306771"/> <!-- U Unter den Linden -->
        <ride busStop="3867910421" lines="300:1" intended="pt_bus_300:1.0" depart="735.00"/> <!-- U Museumsinsel -->
        <walk edges="1056367957#0 1170011369#2 1173733854#5"/>
    </person>
    <person id="ped48" type="ped_pedestrian" depart="171.91">
        <walk edges="974193166#0 974193166#1 974193166#2 1170011367#0 1254634274#0 1254634274#1 1254634273#1 1254634273#2 383505780#1 -383505780#2" busStop="3867910420"/> <!-- U Museumsinsel -->
        <ride busStop="272408975" lines="100:0" intended="pt_bus_100:0.0" depart="327.00"/> <!-- U Unter den Linden -->
        <walk edges="883691541#5 881245039 915958586 1158551336#2 1124928840#0 915958611#1" busStop="8170794617"/> <!-- Unter den Linden -->
        <ride busStop="3869306769" lines="U6:0" intended="pt_subway_U6:0.1" depart="760.00"/> <!-- Friedrichstraße -->
        <walk edges="-4402228 -1151064402#1 -465376254#2 -465376254#3 1087301104 1134016143 1134016144#0 1134016144#1 168940071#7 168940071#6"/>
    </person>
    <person id="ped49" type="ped_pedestrian" depart="175.49">
        <walk edges="915958602#0 915958602#1 915958602#2 915958605#3 1171464776#1 1037138981#4 1037138981#3 1037138981#2 1037138981#1 1158551342#1 1037130999#4 1037130999#3 1037130999#2 1037130999#1" busStop="3869306771"/> <!-- U Unter den Linden -->
        <ride busStop="3867910421" lines="300:1" intended="pt_bus_300:1.0" depart="735.00"/> <!-- U Museumsinsel -->
        <ride busStop="1827996414" lines="100:1" intended="pt_bus_100:1.1" depart="947.00"/> <!-- Spandauer Straße/Marienkirche -->
        <walk edges="100113532 1212793338#1 1212793345#1 561326926#1 561326926#0"/>
    </person>
    <person id="ped50" type="ped_pedestrian" depart="179.07">
        <walk edges="-1126465423 -4611694#1" busStop="-7974928190"/> <!-- Museumsinsel -->
        <walk edges="1181092879#2 1181092879#1 1173733854#1 1254634274#1 1254634273#1 1254634273#2 -383505780#0 1159462966 1159462967#1 1224670640#1 1224670639#2 1224670639#1 1224670639#0 339201191#1 1224670641#0 1212793343#1 1212793334 1112464598#1 1112464598#0 1079045029#4 492027387 492027392#0 492027392#1 492027392#2 234463931#0 234463931#1 372616653#4"/>
    </person>
    <person id="ped51" type="ped_pedestrian" depart="182.65">
        <walk edges="31959081#1 31959081#0 1216417114#1 1216417114#2 1212138779#0 1085398476#0 -30721660#1 1158979785#4 1257261406#1 1257261406#0 1085398477#3 1085398477#4 1225731570#1 1225731570#2 1085398479#1 1085398479#0 170098545#0 170098545#1 170098545#2 170098545#3 170098545#4 46517262#0 46517262#1 46517262#2 170852467 170852441"/>
    </person>