<?xml version="1.0" encoding="UTF-8"?>

<!-- generated on 2024-06-24 12:45:37.826581 by osmWebWizard.py v1_19_0+0000-baa66a0f364
<configuration>
    <net-file value="C:\Users\Jaime\Sumo\2024-06-24-12-45-20\osm.net.xml.gz"/>
    <additional-files value="C:\Users\Jaime\Sumo\2024-06-24-12-45-20\osm_stops.add.xml,C:\Users\Jaime\Sumo\2024-06-24-12-45-20\osm_pt.rou.xml"/>
    <output-trip-file value="C:\Users\Jaime\Sumo\2024-06-24-12-45-20\osm.pedestrian.trips.xml"/>
    <route-file value="C:\Users\Jaime\Sumo\2024-06-24-12-45-20\osm.pedestrian.rou.xml"/>
    <persontrips value="True"/>
    <persontrip.walk-opposite-factor value="0.8"/>
    <prefix value="ped"/>
    <trip-attributes value="modes=&quot;public&quot;"/>
    <vehicle-class value="pedestrian"/>
    <fringe-factor value="1"/>
    <end value="2000.0"/>
    <insertion-density value="10.0"/>
</configuration>
-->

<!-- generated on 2024-06-24 12:45:35 by Eclipse SUMO duarouter Version 1.19.0
<configuration xmlns:xsi="http://www.w3.org/2001/XMLSchema-instance" xsi:noNamespaceSchemaLocation="http://sumo.dlr.de/xsd/duarouterConfiguration.xsd">

    <input>
        <net-file value="C:\Users\Jaime\Sumo\2024-06-24-12-45-20\osm.net.xml.gz"/>
        <additional-files value="C:\Users\Jaime\Sumo\2024-06-24-12-45-20\osm_stops.add.xml,C:\Users\Jaime\Sumo\2024-06-24-12-45-20\osm_pt.rou.xml"/>
        <route-files value="C:\Users\Jaime\Sumo\2024-06-24-12-45-20\osm.pedestrian.trips.xml"/>
    </input>

    <output>
        <output-file value="C:\Users\Jaime\Sumo\2024-06-24-12-45-20\osm.pedestrian.rou.xml"/>
        <alternatives-output value="NUL"/>
    </output>

    <processing>
        <persontrip.walk-opposite-factor value="0.8"/>
    </processing>

    <time>
        <begin value="0.0"/>
        <end value="2000.0"/>
    </time>

    <report>
        <no-warnings value="true"/>
        <ignore-errors value="true"/>
        <no-step-log value="true"/>
    </report>

</configuration>
-->

<routes xmlns:xsi="http://www.w3.org/2001/XMLSchema-instance" xsi:noNamespaceSchemaLocation="http://sumo.dlr.de/xsd/routes_file.xsd">
    <vType id="ped_pedestrian" vClass="pedestrian"/>
    <person id="ped0" type="ped_pedestrian" depart="0.00">
        <walk edges="412525042 166895637 1202261839 119181104#0 71402049#1 71402049#0 71233319#2 71233319#3" busStop="5304749535"/> <!-- Príncipe Pío -->
        <ride busStop="5304749213" lines="R:1" intended="pt_subway_R:1.0" depart="624.00"/> <!-- Ópera -->
        <walk edges="345305595#10 975106083 345305595#8 320898238#1 1057755387" busStop="5303127350"/> <!-- Ópera -->
        <ride busStop="5303043432" lines="L5:1" intended="pt_subway_L5:1.0" depart="876.00"/> <!-- La Latina -->
        <walk edges="4328605#0 -4328608 -23689800#1"/>
    </person>
    <person id="ped1" type="ped_pedestrian" depart="2.19">
        <walk edges="1275419913#1 34095411#1 686215411 82202750#2 82202750#0 107467879 549551721 549551729#4 549551729#3 549551729#2 895321695 5930458 5930462 -41600137#0 -49016413 5930456 107467872#1 702055267 31053370#0 7988367#2 1110166118#1 78589192#0 78589192#1 -7726325 122150989#0 337827306 1288776381#0 167568544#6 167568544#7 167568544#8 1042457224#0 1042457224#1 1042457224#2 1042457224#3 627773360#1 1285156726#2 1285156726#1 1285156761 1285156760#0 73832612 1285156718#1 1285156719 1285156720 1285156721 73832629#1 73832629#2 73832629#3 1285156699#0 1285156699#1 1285156700 1285156701#0 1285156701#1 73832614#2 73832614#1 1202327412 136832084#2 461043899#0 461043899#1 461043899#2 1164261506#1"/>
    </person>
    <person id="ped2" type="ped_pedestrian" depart="4.38">
        <walk edges="511895636 1260545323#0 336635027#0 1286420527#5 336635034#15 336635034#14 336635034#13 336635034#12 336635034#11 336635034#10 336635034#9 336635034#8 336635034#7 336635034#6 336635034#5 336635034#4 336635034#3 336635034#2 336635034#1 1288890365#2 1288890365#1 1288890365#0 1288890364#4 1288890364#3 1288890364#2 1288890364#1 1288890364#0" busStop="21968139"/>
        <walk edges="1289077481" busStop="339242703"/> <!-- Sevilla - Pza. Canalejas -->
        <walk edges="30676545#1 -4328790#7 -4328790#5 4328790#4 4328790#3 4328790#2 4328790#1"/>
    </person>
    <person id="ped3" type="ped_pedestrian" depart="6.57">
        <walk edges="7642922#1 7642922#2 166226097#0 859877407#1 859877407#0 166226099#3 70955584#1 -70955584#0 7642979#0 7642979#2 556954611#0 -685983423 30650267#12 428661377#1 556954608#1 30650267#17 30650267#18 77339395#5 77339395#4 77339395#3 77339395#2 77339395#1 77339395#0 975813002#0 975813002#1 549535250#0 549535250#1 334156471#18 -334373211#0 334165985#1 334165985#0 -424852628#1"/>
    </person>
    <person id="ped4" type="ped_pedestrian" depart="8.76">
        <walk edges="27452821#2 27452821#1 31452454#0 31452454#1 17252040 -4264184#1 1211525768 387848381" busStop="5970484992"/> <!-- Bailén - Mayor -->
        <walk edges="387421983 388101145#1 388101145#0 627773356#5 1200933605 1200933606 689778723#0 1211372901 -1211372886 -102154817#2 -102154817#1 -102154817#0 1211372894#2 1211372894#3 -28025837#3 -28025837#2"/>
    </person>
    <person id="ped5" type="ped_pedestrian" depart="10.95">
        <walk edges="1110166118#1 78589192#0 78589192#1 7726325 345305595#10 975106083 345305595#8 345305595#7 334382540#1 334382540#0 334382540#13 7971929 17760808 17760812#2 31021779#5 31021779#4 1199889502#1 549548249#1 549548249#0 549548251 549548247 548874626#1 548874626#0 548899583 548899580 548899585#6 1003795546#2 334102282#0 334102282#1 334102282#2"/>
    </person>
    <person id="ped7" type="ped_pedestrian" depart="15.33">
        <walk edges="423638485 686213118#0 166995500#1 166995500#0 -686213115#0 -686213115#1 -4328777#0 -4328777#1 -4328777#3 -1124860507#2 7971489#0 7971489#1" busStop="5970506956"/> <!-- Cedaceros - Zorrilla -->
        <walk edges="391707139#0 391707139#1 1288890364#4 1288890363#3 1288890363#2" busStop="7537651754"/>
        <walk edges="336633765#1 336633767"/>
    </person>
    <person id="ped8" type="ped_pedestrian" depart="17.52">
        <walk edges="1124860507#3 -49031985#0 4328786#3 7726291#3 4328786#5 7726291#5 7726291#6 30650267#15 30650267#14 30650267#13 30650267#12 -685983423 556954611#0 7642979#2 7642979#0 1109771619" busStop="-5299219185"/> <!-- Tirso de Molina -->
        <walk edges="1176321083 1176321085 1176321089#1 398165184 319620189 398165182 380211175 41699518#0 41699477#1 902239495 902239488#1 902239493#1 902239483 444331992#1 444331991#2 380211170#19"/>
    </person>
    <person id="ped9" type="ped_pedestrian" depart="19.71">
        <walk edges="627773360#3 627773360#4 627773356#0 627773356#1 627773356#2 627773356#3 627773356#4 627773356#5 1200933605 1200933606 689778723#0 1211372901 -1211372886 1211372891#1 -1211372891#2"/>
    </person>
    <person id="ped10" type="ped_pedestrian" depart="21.90">
        <walk edges="5935905#3 -263793367#1 -263793367#0 -548874630 5935906 -548874631#5 4518852#0 4518852#1 4518853#0 4518855#1 4518855#2 319304177 549551722 549551729#5 549551729#4 549551729#3 549551729#2 895321695 5930458 5930462 -41600137#1 7988353 7988351#2 49016412#1 380211170#3 380211170#2 380211170#1 380211170#22 444331990#0"/>
    </person>
    <person id="ped11" type="ped_pedestrian" depart="24.09">
        <walk edges="1288890364#0 391707139#0" busStop="5970506956"/> <!-- Cedaceros - Zorrilla -->
        <walk edges="7971489#1 7971489#0 -1124860507#2 -4328777#3 -4328777#1 4328777#0 686213115#1 4328778#4 4328778#3 4328778#2 4328778#1 -4328778#0 -7972665#3 -7972665#2 -7972665#1"/>
    </person>
    <person id="ped12" type="ped_pedestrian" depart="26.29">
        <walk edges="82567681#0 82567682 686214705 686214706#3 686214706#2 686214706#1 686214706#0 30674611 -262951802#1 28906825#0 336635471#3 336635471#4 1260545324 -5930469#1 -5930469#2 -5930468#0 336635034#3 336635034#2 1288890367 1288890372#1 1288890372#0 1288890370 651543116#2 651543116#1 651543116#0 1287136457#5"/>
    </person>
    <person id="ped13" type="ped_pedestrian" depart="28.48">
        <walk edges="-4328777#3 -1124860507#2 7971489#0 7971489#1" busStop="5970506956"/> <!-- Cedaceros - Zorrilla -->
        <walk edges="391707139#0" busStop="21968139"/>
        <walk edges="1289077481" busStop="339242703"/> <!-- Sevilla - Pza. Canalejas -->
        <walk edges="30676545#1 -4328790#7"/>
    </person>
    <person id="ped14" type="ped_pedestrian" depart="30.67">
        <walk edges="695994346 695994347 695994348 695994123#3 695994123#2 695994123#1 695994123#0 695994124 695994125#5 695994125#4 695994125#3 695994125#2 695994125#1 695994125#0" busStop="-5299219188"/> <!-- Gran Vía -->
        <walk edges="334102282#9 335819317#6 335819317#5 335819317#4 549535249#1 549535249#0 549535253#4" busStop="5303272075"/> <!-- Sol -->
        <ride busStop="5303272068" lines="L2:1" intended="pt_subway_L2:1.0" depart="734.00"/> <!-- Ópera -->
        <walk edges="1240524439 320898238#0 320898238#1 345305595#8 975106083 345305595#10" busStop="-5304749213"/> <!-- Ópera -->
        <ride busStop="-4405988225" lines="R:0" intended="pt_subway_R:0.1" depart="924.00"/> <!-- Príncipe Pío -->
        <walk edges="71233319#3 71233319#2 71402049#0 71402049#1 119181104#0 1202261839 166895637 412525043 -412525041#0 -412525046#9 30914854#1 30914854#0 23621792#4 23621792#3 23621787#1 306739053#0 306739053#1 306739053#2 380220410"/>
    </person>
    <person id="ped15" type="ped_pedestrian" depart="32.86">
        <walk edges="627773356#1 627773356#2 627773356#3 627773356#4 388101145#0 388101145#1 387421983" busStop="5970484992"/> <!-- Bailén - Mayor -->
        <walk edges="417376739#0 29001514#0 -29001399 -7726324#1 -7726324#0 -31309326#1 -31309326#2 380216537 1225259509 1225259508 49016407#0 233362807#1 49016407#2"/>
    </person>
    <person id="ped16" type="ped_pedestrian" depart="35.05">
        <walk edges="335819317#8 335819317#7 334102282#8 334102282#7 335819321#1 4328802#1 4328802#2 4328802#3 7643043#2 891042015#4"/>
    </person>
    <person id="ped17" type="ped_pedestrian" depart="37.24">
        <walk edges="166895637 1202261839 119181104#0 71402049#1 71402049#0 71233319#2 71233319#3" busStop="5304749535"/> <!-- Príncipe Pío -->
        <ride busStop="5304749213" lines="R:1" intended="pt_subway_R:1.0" depart="624.00"/> <!-- Ópera -->
        <walk edges="345305595#10 975106083 345305595#8 320898238#1 320898238#0 1240524440 320898241" busStop="-4405991654"/> <!-- Ópera -->
        <ride busStop="-25903355" lines="L2:0" intended="pt_subway_L2:0.0" depart="970.00"/> <!-- Banco de España -->
        <walk edges="1286420525#2 1286420525#3 336635033#3 336635033#2"/>
    </person>
    <person id="ped18" type="ped_pedestrian" depart="39.43">
        <walk edges="691794841 388101137#4 388101137#5 388101139#0 388101139#1 388101139#2 388101139#3 388101148#0"/>
    </person>
    <person id="ped19" type="ped_pedestrian" depart="41.62">
        <walk edges="696002593#2 696002593#1 696002593#0 695993046#1 695993053 695993052 319338106 335819717 335825755#1 335825755#2 335825755#3 335825755#4 335825755#5 335825755#6 335825755#7 336633765#4 336633765#3 1288890369 651543116#0 651543116#1 651543116#2 1288890366#3 353932523#3"/>
    </person>
    <person id="ped20" type="ped_pedestrian" depart="43.81">
        <walk edges="4487155#6 1240524436#3 345305595#1 4487157#0 345305595#11 -7726325 78589192#1 78589192#0 1110166118#1 7988367#2 31053370#0 702055267" busStop="5970506959"/> <!-- Mayor - Ayuntamiento de Madrid -->
        <walk edges="702055266#3 702055266#2 31092489 1105989744 1105989743 -31234179#1"/>
    </person>
    <person id="ped21" type="ped_pedestrian" depart="46.00">
        <walk edges="1176321086 398165183#0 319620188 1109771619 7642979#0 7642979#2 556954611#0 -685983423 30650267#12 428661377#1 556954608#1 30650267#17 30650267#18 77339395#5 77339395#4 77339395#3 77339395#2 77339395#1 77339395#0 1285653608#1 1285653608#0 549535253#4" busStop="5303272075"/> <!-- Sol -->
        <ride busStop="5303272068" lines="L2:1" intended="pt_subway_L2:1.0" depart="734.00"/> <!-- Ópera -->
        <walk edges="1240524439 320898238#0 949083175#1 -31053377#1 122150989#0 337827306 1288776381#0 167568544#6 167568544#7 167568544#8 1042457224#0 1042457224#1 1042457224#2 1042457224#3 627773360#1 1285156726#2 1285156726#1 1285156761 1285156760#0 73832612 1285156718#1 1285156719 1285156720 1285156721 73832629#1 73832629#2 73832629#3 1285156699#0 1285156699#1 1285156700 1285156701#0 1285156707 1285156704 1285156703"/>
    </person>
    <person id="ped22" type="ped_pedestrian" depart="48.19">
        <walk edges="-398751337#2 398751337#3 690824245 130468268#1 -909029029#2 -909029029#0 360917196#1 376671611#1 376671610#0 -7732914#1 -7726322 -7973710 1180136318 -31309326#4 -31309326#3 -31309326#2 -31309326#1 -7726324#0 -7726324#1 29001399 29001514#0 29001514#1 107465465 -28026114 1176704572 28026152#1 388101136#1 388101136#0 548794182#3 380217064#1 -685984978#1 -31000487 1184617809"/>
    </person>
    <person id="ped23" type="ped_pedestrian" depart="50.38">
        <walk edges="-4487131#0 4487131#0 4487131#1 136832111#2 1005996782 1005996783 1005996754#0 1005996754#1 261929399#5 261929399#4 1137690633#0 1005996737 1008751314 1005996747 4308590#0 4308590#3 4308590#4 -542317518#0 28998512#0 -31769258#2 119181075#1 438807197 344003630 1252080883#2 1252080883#1 1252080882 1279075086#1 1279075088#3"/>
    </person>
    <person id="ped24" type="ped_pedestrian" depart="52.57">
        <walk edges="409114851#1 549532293#1 549532292 409114852#0 555513761 555513762#1 4487155#2 4487155#1 992011777#3 992011777#2 992011777#1 4487157#1 4487157#0 345305595#11 122150989#0 337827306 1288776381#0 1288776381#1 1288776382 4330856#0 4330856#1 151240773"/>
    </person>
    <person id="ped25" type="ped_pedestrian" depart="54.76">
        <walk edges="152458476#0 152458476#1 31053298 345305584#4 4487132#1 -4487131#1" busStop="5303173542"/> <!-- Plaza de España -->
        <ride busStop="21759678" lines="L3:0" intended="pt_subway_L3:0.0" depart="562.00"/> <!-- Sol -->
        <walk edges="549535251#1 549535251#0 549553017 1021990002 1021990003"/>
    </person>
    <person id="ped26" type="ped_pedestrian" depart="56.95">
        <walk edges="1240524444#0 345305595#7 334382540#1 334382540#0 334382540#13 7971929 -7971929 334382540#12 334382540#3 334382540#4 -334382540#5 -334382540#6 4518852#1 4518853#0 4518853#1 4518853#2 49016417#5 49016417#4 4519451#1 4519451#2 -155872376 79638499 29487062#0 7726291#8 7726291#0 7726291#1 29486910#1 423231390 122269846#0 122269846#1 -686213115#1 -4328778#4 -4328778#3 7972552 7972549#1"/>
    </person>
    <person id="ped27" type="ped_pedestrian" depart="59.14">
        <walk edges="423231390 29486910#1 7726291#1 7726291#0 7726291#8 29487062#0 556954608#1 66835311#0 4519453 406007906 1275419913#0 1275419913#1 34095411#1 686215411 82202750#2 82202750#0 107467879 549551721 549551729#4 549551729#3 549551729#2 895321695 5930458 5930462 -41600137#1 7988353 981281942 31092431#2 31092480 380215445#0 380215445#1 380215444 7972312#3 7972312#2 7972312#1 7972312#0 1180136318 -7973710 -7726322 -7732914#1 387419477#0"/>
    </person>
    <person id="ped28" type="ped_pedestrian" depart="61.33">
        <walk edges="1000016480#0 868475440#1 868475440#0 66835421 49016406#0 4518855#0 4518855#1 4518855#2 319304177 549551722 549551729#5 549551729#4 549551729#3 549551729#2 895321695 5930458 5930462 -41600137#1 7988353 981281942 31092431#2 31092480 380215445#0 380215445#1 380215444 -7972312#3 -7972312#2 31234004#1 49016407#2 233362807#1 49016407#0"/>
    </person>
    <person id="ped29" type="ped_pedestrian" depart="63.52">
        <walk edges="-82567670#0 82567670#1 82567670#2 4328778#0 4328778#1 4328778#2 4328778#3 4328778#4 686213115#1 122269846#1 122269846#0 423231390 29486910#1 7726291#1 -79638503 4328789#0 4328789#1 4328789#2 4328789#3 4328789#4 -686213113 865912090#4 865912090#3 865912090#2 865912090#1 865912090#0 549535253#4" busStop="5303272075"/> <!-- Sol -->
        <ride busStop="5303272068" lines="L2:1" intended="pt_subway_L2:1.2" depart="1334.00"/> <!-- Ópera -->
        <walk edges="1240524439 320898238#0 949083175#1 -31053377#1 122150989#0 337827306 1288776381#0 167568544#6 167568537#0"/>
    </person>
    <person id="ped30" type="ped_pedestrian" depart="65.71">
        <walk edges="951997923 951997921#1 951997924 951997919#0 -7648766#3 31000487 685984978#0 380217064#0 361273673#5 388101141 102154821 691794843 1200933604 -689778723#2 -689778723#1 1211372901 4328982 28025967#4 28025967#3 28025967#2 28025967#1 412525046#0"/>
    </person>
    <person id="ped31" type="ped_pedestrian" depart="67.90">
        <walk edges="336635194 336635034#13 336635034#12 336635034#11 336635034#10 336635034#9 336635034#8 336635034#7 336635034#6 336635034#5 336635034#4 336635034#3 336635034#2 336635034#1 1288890365#2 1288890365#1 1288890365#0 1288890364#4 1288890364#3 1288890364#2 1288890364#1 1286414026#0 1286414026#1 1286414028#1" busStop="5303272231"/> <!-- Sevilla -->
        <ride busStop="5303272068" lines="L2:1" intended="pt_subway_L2:1.0" depart="676.00"/> <!-- Ópera -->
        <walk edges="1240524439 320898238#0 949083175#1 -31053377#1 122150989#0 337827306 1288776381#0 1288776381#1 1288776382 4330856#0 4330856#1 4330856#2"/>
    </person>
    <person id="ped32" type="ped_pedestrian" depart="70.09">
        <walk edges="695994122#1 695994119 695994121#1 695994125#4 695994125#3 695994125#2 695994125#1 695994125#0" busStop="-5299219188"/> <!-- Gran Vía -->
        <walk edges="334102282#9 335819317#6 335819317#5 335819317#4 549535249#1 549535249#0 549535253#4 549535253#3 549535253#2 549535253#1 549535253#0"/>
    </person>
    <person id="ped33" type="ped_pedestrian" depart="72.28">
        <walk edges="1176321089#1 398165184 319620189 398165182 380211175 31262320#1 4328609 4328605#0 4328605#1 398751337#3 690824245 130468268#1 -909029029#2 -909029029#0 360917196#1 376671611#1 376671610#0 387419477#5 5927087#3 -29045205#2 -29045205#1 -29045205#0"/>
    </person>
    <person id="ped34" type="ped_pedestrian" depart="74.48">
        <walk edges="1285216312 1285216310#6 1285216311 337822797#1 337822797#2 337822797#3 337822797#4 337822797#5 337822797#6 337822797#7 1285156726#0 1285156726#1 1285156726#2 627773360#1 1042457224#3 1042457224#2 1042457224#1 1042457224#0 167568544#8 167568544#7 167568544#6 1288776381#0 337827306 122150989#0 -7726325 78589192#1 78589192#0 1110166118#1 1240524441#1 1240524441#0 1240534026 1240534027"/>
    </person>
    <person id="ped35" type="ped_pedestrian" depart="76.67">
        <walk edges="1042457224#0 167568544#8 167568544#7 167568544#6 1288776381#0 337827306 122150989#0 -31053377#1 949083175#1 949083175#0 334382540#0 334382540#13 7971929 -7971929 334382540#12 334382540#3 334382540#4 -548874631#3 -548874631#4 -548874631#5 -548874631#6 -549535252 549535253#0 549535253#1 549535253#2 549535253#3 549535253#4 1285653608#0" busStop="5299314580"/> <!-- Sol -->
        <ride busStop="26340397" lines="L1:0" intended="pt_subway_L1:0.0" depart="1127.00"/> <!-- Antón Martín -->
        <walk edges="48345480#0 423232043 4328776 7972698#1 7972698#2"/>
    </person>
    <person id="ped36" type="ped_pedestrian" depart="78.86">
        <walk edges="729841501 896274304#1 1212148820#2 1212148821#1 1212148821#0 376671611#1 376671610#0 -7732914#1 -7726322 -7973710 1180136318 -31309326#4 -31309326#3 -31309326#2 -31309326#1 -7726324#0 -7726324#1 29001399 29001514#0 417376739#0" busStop="5970484992"/> <!-- Bailén - Mayor -->
        <walk edges="387421983 388101145#1 388101145#0 627773356#4 627773356#3 627773356#2 627773356#1 627773356#0 627773360#4 627773360#3 627773360#2 627773360#1 1285156726#2 1285156726#1 1285156726#0 337822797#7 337822797#6 1285156722#3 1285156728#0 1285156728#1 1285156728#2 1285156728#3 1285156728#4 1285156728#5 1285156728#6 1285156728#7 1285156728#8 1285216310#5"/>
    </person>
    <person id="ped37" type="ped_pedestrian" depart="81.05">
        <walk edges="428661377#0 428661377#1 556954608#1 30650267#17 30650267#18 77339395#5 77339395#4 77339395#3 77339395#2 77339395#1 77339395#0 975813002#0 975813002#1 549535250#0 549535250#1 334156471#18 -334373211#0 334165985#1 31021534#1 31021534#2 -688424906#0 -688424906#1 -688424906#2 -688424906#3 202214510#11"/>
    </person>
    <person id="ped38" type="ped_pedestrian" depart="83.24">
        <walk edges="77339395#0 -43410308#1 -43410308#0 -685983424 66835421 49016406#0 4518855#0 4518855#1 4518855#2 319304177 549551722 549551729#5 549551729#4 549551729#3 549551729#2 895321695 5930458 5930462 -41600137#1 7988353 981281942 31092431#2 31092480 380215445#0 380215445#1 380215444 -7972312#3 -7972312#2 -7972312#1 -7972312#0 -31309326#4 -31309326#3 -31309326#2 -31309326#1 -7726324#0 -7726324#1 29001399 29001514#0 29001514#1 107465465 -28026114 1176704572 28026152#1 388101136#1 388101136#0 548794182#3 380217064#1 685984978#0 31000487"/>
    </person>
    <person id="ped39" type="ped_pedestrian" depart="85.43">
        <walk edges="1240524438 1199750082#1 320898240 417400306 320898239#1 320898239#0 320898241 1240524440 320898238#0 949083175#1 -31053377#1 122150989#0 337827306 1288776381#0 167568544#5 167568544#4 167568544#3 167568544#2 167568544#1 167568544#0 627773360#4 627773356#0 627773356#1 322589263#1 1202333085#0 1202333086#1"/>
    </person>
    <person id="ped40" type="ped_pedestrian" depart="87.62">
        <walk edges="337822797#1 1285216309 1009710601 1009710600 152458482#1 152458482#2 301890811 301890812 -4487132#0 4487132#1 4487131#2 363605884#1 363605884#2 363605884#3 555513759#5 555513759#4 555513759#3 1240524435"/>
    </person>
    <person id="ped41" type="ped_pedestrian" depart="89.81">
        <walk edges="363605884#1 -4487130#2 -4487130#3 -7642939#7 -1208079149 453626028#0 409113981#1 409113981#0 409113983#0 409113983#1 202214510#0 202214510#1 202214510#2 202214510#3 202214510#4 202214510#5 320895852" busStop="21964104"/> <!-- Callao -->
        <ride busStop="21759678" lines="L3:0" intended="pt_subway_L3:0.0" depart="630.00"/> <!-- Sol -->
        <walk edges="549535251#1 549535251#0 549553017 319338104 77339395#1 77339395#2 77339395#3 77339395#4 77339395#5 30650267#18 30650267#17 29487062#0 7726291#8 7726291#0 7726291#1 29486910#1 423231390 7643038"/>
    </person>
    <person id="ped44" type="ped_pedestrian" depart="96.38">
        <walk edges="-4328609 -4328605#0 -4328605#1 -398751337#3 -690824245 -130468268#1 -909029029#2 -909029029#0 360917196#1 376671611#1 376671610#0 -7732914#1 -7726322 -7973710 1180136318 7972312#0 -7972312#1 31234004#1 31234004#0 31234070 -31234179#2 -31234179#5 -31234179#7 -31234179#8"/>
    </person>
    <person id="ped45" type="ped_pedestrian" depart="98.57">
        <walk edges="-49016413 41600137#0 41600137#1 7988353 7988351#2 49016412#1 380211170#3 380211170#2 380211170#1 49016411#0 -168406442#2 380211170#18 444331991#2 444331992#1 902239483 902239493#1 902239488#1 902239495 41699477#1 41699518#0 380211175 398165182 319620189 398165184 1176321089#1 1176321085 1176321083 1176321084 398165183#1"/>
    </person>
    <person id="ped46" type="ped_pedestrian" depart="100.76">
        <walk edges="570379827#0 1016940347 1016940348 1016940343 1016940346 1016940345 1016940344 1016940338#1 570379829#4 336635020#6" busStop="-25903355"/> <!-- Banco de España -->
        <walk edges="336635029" busStop="5303272236"/> <!-- Banco de España -->
        <ride busStop="5303272249" lines="L2:1" intended="pt_subway_L2:1.0" depart="612.00"/> <!-- Santo Domingo -->
        <walk edges="592885351 7642939#2 7642939#3 7642939#4 7642939#5 7642939#6 -4487130#3 -4487130#2 -4487131#2 -4487131#1" busStop="5303173542"/> <!-- Plaza de España -->
        <walk edges="27540826#0"/>
    </person>
    <person id="ped47" type="ped_pedestrian" depart="102.95">
        <walk edges="-334163094#0 334156471#3 -548874633#4 -548874635#1 -548874635#2 548874635#3 548874635#4 -548874635#5 548899581 548899585#4 548899585#3 548899583 548874626#0 548874626#1 549548247 549548251 549548249#0 549548249#1 1199889502#1 31021779#4 31021779#5 17760812#2 17760808 7971929 334382540#13 334382540#0 949083175#0 949083175#1 -31053377#1 122150989#0 337827306 1288776381#0 1288776381#1 1288776382 4330856#0 4330856#1 4330856#2 4330856#3 4330856#4 591672036#0 167568541#0 167568541#1"/>
    </person>
    <person id="ped49" type="ped_pedestrian" depart="107.33">
        <walk edges="866464520#6 31053385#1 31053385#2 31053385#3 31053379#0 7988354 7988358#1 31053378#4 895718045#1 1240980815#0 1240980815#1 7988367#0 7988367#1 1110166118#1 78589192#0 78589192#1 7726325 345305595#10 975106083 345305595#8 320898238#1 320898238#0 1240524440 320898241" busStop="-4405991654"/> <!-- Ópera -->
        <ride busStop="-4405988107" lines="L2:0" intended="pt_subway_L2:0.0" depart="970.00"/> <!-- Sol -->
        <walk edges="549535253#4 549535249#0 549535249#1 335819317#4 335819317#5 548874627 651935510#3 651935510#2 695993049 319338114 695993048 695993047 695993046#0 696002593#0 696002593#1 696002592"/>
    </person>
    <person id="ped50" type="ped_pedestrian" depart="109.52">
        <walk edges="-1289160767 689778723#0 1211372901 4328982 28025967#5 28025967#6 28025967#7 -28025998#1 -28025998#0 542317518#0 28998512#0 1015809906 466067815#0"/>
    </person>
    <person id="ped51" type="ped_pedestrian" depart="111.71">
        <walk edges="4328802#4 4328802#3 4328802#2 4328802#1 202214510#12 202214510#11 335819320"/>
    </person>
    <person id="ped52" type="ped_pedestrian" depart="113.90">
        <walk edges="1240524443 352139543 345305595#10 122150989#0 337827306 1288776381#0 167568544#6 167568544#7 167568544#8 1042457224#0 1042457224#1 1042457224#2 1042457224#3 627773360#1 1285156726#2 1285156726#1 1285156761 1285156760#0 73832612 1285156718#1 1285156719 1285156720 1285156721 73832629#1 73832629#2 73832629#3 1285156699#0 1285156699#1 1285156700 1285156701#0 1285156701#1 73832614#2 73832614#1 1202327412 136832084#2 461043899#0 71808949#0 136832084#4 -1202329678#1 1202329679 412525046#3 412525046#4"/>
    </person>
    <person id="ped53" type="ped_pedestrian" depart="116.09">
        <walk edges="-548874631#0 -334382540#1 334382540#1 334382540#0 334382540#13 7971929 -7971929 334382540#12 334382540#3 334382540#4 -334382540#5 -334382540#6 4518852#1 4518853#0 4518853#1 4518853#2 49016417#5 49016417#4 4519451#1 4519451#2 -155872376 79638499 29487062#0 7726291#8 30650267#14 30650267#15 7726291#6 7726291#5 4328786#5 7726291#3 4328786#3 29230555#0"/>
    </person>
    <person id="ped54" type="ped_pedestrian" depart="118.28">
        <walk edges="307026213#1 823103722 4330856#4 4330856#5 151240774#4 151240774#5 167568544#0 627773360#4 627773356#0 627773356#1 627773356#2 627773356#3 627773356#4 388101145#0 388101145#1 387421983" busStop="5970484991"/> <!-- Bailén - Mayor -->
        <walk edges="29001514#1 107465465 -28026114 1176704572 28026152#1 388101136#1 388101136#0 548794182#3 380217064#1 -685984978#1 -31000487 81295320#1 81295320#2 81295320#3"/>
    </person>
    <person id="ped55" type="ped_pedestrian" depart="120.47">
        <walk edges="71808949#1 461043899#1 4308590#4 1164261507 71233319#0 71233319#1 71233319#2 71233319#3" busStop="5304749535"/> <!-- Príncipe Pío -->
        <ride busStop="5304749213" lines="R:1" intended="pt_subway_R:1.0" depart="624.00"/> <!-- Ópera -->
        <walk edges="345305595#10 975106083 345305595#8 320898238#1 320898238#0 1240524440 320898241 320898239#0 320898239#1 417400306 320898240 1199750082#1 1240524438 1240524436#4 1240524436#3 1240524436#2"/>
    </person>
    <person id="ped56" type="ped_pedestrian" depart="122.66">
        <walk edges="320898239#1 320898239#0 320898241 1240524440 320898238#0 949083175#1 -31053377#1 122150989#0 337827306 1288776381#0 167568544#6 167568544#7 167568544#8 1042457224#0 1042457224#1 1042457224#2 1042457224#3 627773360#1 1285156726#2 1285156726#1 1285156726#0 337822797#7 337822797#6 337822797#5 337822797#4 337822797#3 337822797#2 337822797#1 1285216311 1285216310#6 1285216310#1 1285216310#2 1285216308 1285216306#1 1008751314 1005996748"/>
    </person>
    <person id="ped57" type="ped_pedestrian" depart="124.86">
        <walk edges="7732105 453626028#1 1208079149 7642939#7 7642939#6 7642939#5 7642939#4 7642939#3 549532290#1 549532290#2 555513761 555513762#1 4487155#2 4487155#1 992011777#3 992011777#2 992011777#1 4487157#1 4487157#0 345305595#11 -7726325 78589192#1 78589192#0 1110166118#1 7988367#2 31053370#0 702055267"/>
    </person>
    <person id="ped58" type="ped_pedestrian" depart="127.05">
        <walk edges="1285156727#1 1285156729#0 73832619#0 1285156723#0 1005996740#1 1005996740#2 1005996739#0 1005996739#1 136832084#0 136832084#1 136832084#2 461043899#0 71808949#0 136832084#4 -1202329678#1 1202329679 412525046#3 380220408#0 380220408#1 386599685#0 23621792#4 30914854#0 30914854#1 412525046#9 412525041#0"/>
    </person>
    <person id="ped59" type="ped_pedestrian" depart="129.24">
        <walk edges="387419477#0 387419477#7 387438488#1 376671611#1 1212148821#0 1212148821#1 1212148820#1 -909029029#0 -909029029#2 -130468268#1 -690824245 -398751337#3 -4328605#1 -4328605#0 -4328609 -31262320#1 380211183 856810041" busStop="3656088313"/>
        <walk edges="1176321088 1176321087" busStop="26340396"/> <!-- Tirso de Molina -->
        <ride busStop="26340397" lines="L1:0" intended="pt_subway_L1:0.0" depart="1199.00"/> <!-- Antón Martín -->
        <walk edges="4328795#2 4328795#1 4328795#0 -320668245#1 320668249" busStop="-8423356513"/>
        <walk edges="7972551#3 -7972551#2"/>
    </person>
    <person id="ped60" type="ped_pedestrian" depart="131.43">