<?xml version="1.0" encoding="UTF-8"?>

<!-- generated on 2024-06-24 12:45:35.115885 by osmWebWizard.py v1_19_0+0000-baa66a0f364
<configuration>
    <net-file value="C:\Users\Jaime\Sumo\2024-06-24-12-45-20\osm.net.xml.gz"/>
    <additional-files value="C:\Users\Jaime\Sumo\2024-06-24-12-45-20\osm_stops.add.xml,C:\Users\Jaime\Sumo\2024-06-24-12-45-20\osm_pt.rou.xml"/>
    <output-trip-file value="C:\Users\Jaime\Sumo\2024-06-24-12-45-20\osm.pedestrian.trips.xml"/>
    <route-file value="C:\Users\Jaime\Sumo\2024-06-24-12-45-20\osm.pedestrian.rou.xml"/>
    <persontrips value="True"/>
    <persontrip.walk-opposite-factor value="0.8"/>
    <prefix value="ped"/>
    <trip-attributes value="modes=&quot;public&quot;"/>
    <vehicle-class value="pedestrian"/>
    <fringe-factor value="1"/>
    <end value="2000.0"/>
    <insertion-density value="10.0"/>
</configuration>
-->

<routes xmlns:xsi="http://www.w3.org/2001/XMLSchema-instance" xsi:noNamespaceSchemaLocation="http://sumo.dlr.de/xsd/routes_file.xsd">
    <vType id="ped_pedestrian" vClass="pedestrian"/>
    <person id="ped0" depart="0.00" type="ped_pedestrian">
        <personTrip from="412525042" to="-23689800#1" modes="public"/>
    </person>
    <person id="ped1" depart="2.19" type="ped_pedestrian">
        <personTrip from="1275419913#1" to="1164261506#1" modes="public"/>
    </person>
    <person id="ped2" depart="4.38" type="ped_pedestrian">
        <personTrip from="511895636" to="4328790#1" modes="public"/>
    </person>
    <person id="ped3" depart="6.57" type="ped_pedestrian">
        <personTrip from="7642922#1" to="-424852628#1" modes="public"/>
    </person>
    <person id="ped4" depart="8.76" type="ped_pedestrian">
        <personTrip from="27452821#2" to="-28025837#2" modes="public"/>
    </person>
    <person id="ped5" depart="10.95" type="ped_pedestrian">
        <personTrip from="1110166118#1" to="334102282#2" modes="public"/>
    </person>
    <person id="ped6" depart="13.14" type="ped_pedestrian">
        <personTrip from="-265509167" to="102154804" modes="public"/>
    </person>
    <person id="ped7" depart="15.33" type="ped_pedestrian">
        <personTrip from="423638485" to="336633767" modes="public"/>
    </person>
    <person id="ped8" depart="17.52" type="ped_pedestrian">
        <personTrip from="1124860507#3" to="380211170#19" modes="public"/>
    </person>
    <person id="ped9" depart="19.71" type="ped_pedestrian">
        <personTrip from="627773360#3" to="-1211372891#2" modes="public"/>
    </person>
    <person id="ped10" depart="21.90" type="ped_pedestrian">
        <personTrip from="5935905#3" to="444331990#0" modes="public"/>
    </person>
    <person id="ped11" depart="24.09" type="ped_pedestrian">
        <personTrip from="1288890364#0" to="-7972665#1" modes="public"/>
    </person>
    <person id="ped12" depart="26.29" type="ped_pedestrian">
        <personTrip from="82567681#0" to="1287136457#5" modes="public"/>
    </person>
    <person id="ped13" depart="28.48" type="ped_pedestrian">
        <personTrip from="-4328777#3" to="-4328790#7" modes="public"/>
    </person>
    <person id="ped14" depart="30.67" type="ped_pedestrian">
        <personTrip from="695994346" to="380220410" modes="public"/>
    </person>
    <person id="ped15" depart="32.86" type="ped_pedestrian">
        <personTrip from="627773356#1" to="49016407#2" modes="public"/>
    </person>
    <person id="ped16" depart="35.05" type="ped_pedestrian">
        <personTrip from="335819317#8" to="891042015#4" modes="public"/>
    </person>
    <person id="ped17" depart="37.24" type="ped_pedestrian">
        <personTrip from="166895637" to="336635033#2" modes="public"/>
    </person>
    <person id="ped18" depart="39.43" type="ped_pedestrian">
        <personTrip from="691794841" to="388101148#0" modes="public"/>
    </person>
    <person id="ped19" depart="41.62" type="ped_pedestrian">
        <personTrip from="696002593#2" to="353932523#3" modes="public"/>
    </person>
    <person id="ped20" depart="43.81" type="ped_pedestrian">
        <personTrip from="4487155#6" to="-31234179#1" modes="public"/>
    </person>
    <person id="ped21" depart="46.00" type="ped_pedestrian">
        <personTrip from="1176321086" to="1285156703" modes="public"/>
    </person>
    <person id="ped22" depart="48.19" type="ped_pedestrian">
        <personTrip from="-398751337#2" to="1184617809" modes="public"/>
    </person>
    <person id="ped23" depart="50.38" type="ped_pedestrian">
        <personTrip from="-4487131#0" to="1279075088#3" modes="public"/>
    </person>
    <person id="ped24" depart="52.57" type="ped_pedestrian">
        <personTrip from="409114851#1" to="151240773" modes="public"/>
    </person>
    <person id="ped25" depart="54.76" type="ped_pedestrian">
        <personTrip from="152458476#0" to="1021990003" modes="public"/>
    </person>
    <person id="ped26" depart="56.95" type="ped_pedestrian">
        <personTrip from="1240524444#0" to="7972549#1" modes="public"/>
    </person>
    <person id="ped27" depart="59.14" type="ped_pedestrian">
        <personTrip from="423231390" to="387419477#0" modes="public"/>
    </person>
    <person id="ped28" depart="61.33" type="ped_pedestrian">
        <personTrip from="1000016480#0" to="49016407#0" modes="public"/>
    </person>
    <person id="ped29" depart="63.52" type="ped_pedestrian">
        <personTrip from="-82567670#0" to="167568537#0" modes="public"/>
    </person>
    <person id="ped30" depart="65.71" type="ped_pedestrian">
        <personTrip from="951997923" to="412525046#0" modes="public"/>
    </person>
    <person id="ped31" depart="67.90" type="ped_pedestrian">
        <personTrip from="336635194" to="4330856#2" modes="public"/>
    </person>
    <person id="ped32" depart="70.09" type="ped_pedestrian">
        <personTrip from="695994122#1" to="549535253#0" modes="public"/>
    </person>
    <person id="ped33" depart="72.28" type="ped_pedestrian">
        <personTrip from="1176321089#1" to="-29045205#0" modes="public"/>
    </person>
    <person id="ped34" depart="74.48" type="ped_pedestrian">
        <personTrip from="1285216312" to="1240534027" modes="public"/>
    </person>
    <person id="ped35" depart="76.67" type="ped_pedestrian">
        <personTrip from="1042457224#0" to="7972698#2" modes="public"/>
    </person>
    <person id="ped36" depart="78.86" type="ped_pedestrian">
        <personTrip from="729841501" to="1285216310#5" modes="public"/>
    </person>
    <person id="ped37" depart="81.05" type="ped_pedestrian">
        <personTrip from="428661377#0" to="202214510#11" modes="public"/>
    </person>
    <person id="ped38" depart="83.24" type="ped_pedestrian">
        <personTrip from="77339395#0" to="31000487" modes="public"/>
    </person>
    <person id="ped39" depart="85.43" type="ped_pedestrian">
        <personTrip from="1240524438" to="1202333086#1" modes="public"/>
    </person>
    <person id="ped40" depart="87.62" type="ped_pedestrian">
        <personTrip from="337822797#1" to="1240524435" modes="public"/>
    </person>
    <person id="ped41" depart="89.81" type="ped_pedestrian">
        <personTrip from="363605884#1" to="7643038" modes="public"/>
    </person>
    <person id="ped42" depart="92.00" type="ped_pedestrian">
        <personTrip from="205119472" to="1124380821" modes="public"/>
    </person>
    <person id="ped43" depart="94.19" type="ped_pedestrian">
        <personTrip from="981281940#0" to="334102411#16" modes="public"/>
    </person>
    <person id="ped44" depart="96.38" type="ped_pedestrian">
        <personTrip from="-4328609" to="-31234179#8" modes="public"/>
    </person>
    <person id="ped45" depart="98.57" type="ped_pedestrian">
        <personTrip from="-49016413" to="398165183#1" modes="public"/>
    </person>
    <person id="ped46" depart="100.76" type="ped_pedestrian">
        <personTrip from="570379827#0" to="27540826#0" modes="public"/>
    </person>
    <person id="ped47" depart="102.95" type="ped_pedestrian">
        <personTrip from="-334163094#0" to="167568541#1" modes="public"/>
    </person>
    <person id="ped48" depart="105.14" type="ped_pedestrian">
        <personTrip from="980087507" to="334382540#12" modes="public"/>
    </person>
    <person id="ped49" depart="107.33" type="ped_pedestrian">
        <personTrip from="866464520#6" to="696002592" modes="public"/>
    </person>
    <person id="ped50" depart="109.52" type="ped_pedestrian">
        <personTrip from="-1289160767" to="466067815#0" modes="public"/>
    </person>
    <person id="ped51" depart="111.71" type="ped_pedestrian">
        <personTrip from="4328802#4" to="335819320" modes="public"/>
    </person>
    <person id="ped52" depart="113.90" type="ped_pedestrian">
        <personTrip from="1240524443" to="412525046#4" modes="public"/>
    </person>
    <person id="ped53" depart="116.09" type="ped_pedestrian">
        <personTrip from="-548874631#0" to="29230555#0" modes="public"/>
    </person>
    <person id="ped54" depart="118.28" type="ped_pedestrian">
        <personTrip from="307026213#1" to="81295320#3" modes="public"/>
    </person>
    <person id="ped55" depart="120.47" type="ped_pedestrian">
        <personTrip from="71808949#1" to="1240524436#2" modes="public"/>
    </person>
    <person id="ped56" depart="122.66" type="ped_pedestrian">
        <personTrip from="320898239#1" to="1005996748" modes="public"/>
    </person>
    <person id="ped57" depart="124.86" type="ped_pedestrian">
        <personTrip from="7732105" to="702055267" modes="public"/>
    </person>
    <person id="ped58" depart="127.05" type="ped_pedestrian">
        <personTrip from="1285156727#1" to="412525041#0" modes="public"/>
    </person>
    <person id="ped59" depart="129.24" type="ped_pedestrian">
        <personTrip from="387419477#0" to="-7972551#2" modes="public"/>
    </person>
    <person id="ped60" depart="131.43" type="ped_pedestrian">
        <personTrip from="549521325" to="335825755#1" modes="public"/>
    </person>
    <person id="ped61" depart="133.62" type="ped_pedestrian">
        <personTrip from="549548774#1" to="334382540#4" modes="public"/>
    </person>
    <person id="ped62" depart="135.81" type="ped_pedestrian">
        <personTrip from="-1012622874" to="1286414022" modes="public"/>
    </person>
    <person id="ped63" depart="138.00" type="ped_pedestrian">
        <personTrip from="-174811772#1" to="7971931#2" modes="public"/>
    </person>
    <person id="ped64" depart="140.19" type="ped_pedestrian">
        <personTrip from="73832608#2" to="695993033#1" modes="public"/>
    </person>
    <person id="ped65" depart="142.38" type="ped_pedestrian">
        <personTrip from="1285156747" to="-334156471#11" modes="public"/>
    </person>
    <person id="ped66" depart="144.57" type="ped_pedestrian">
        <personTrip from="73832608#1" to="7988351#3" modes="public"/>
    </person>
    <person id="ped67" depart="146.76" type="ped_pedestrian">
        <personTrip from="-423231391#5" to="31234179#5" modes="public"/>
    </person>
    <person id="ped68" depart="148.95" type="ped_pedestrian">
        <personTrip from="-334382540#11" to="548899585#4" modes="public"/>
    </person>
    <person id="ped69" depart="151.14" type="ped_pedestrian">
        <personTrip from="549521330#2" to="-686213118#1" modes="public"/>
    </person>
    <person id="ped70" depart="153.33" type="ped_pedestrian">
        <personTrip from="31053389#5" to="336635027#1" modes="public"/>
    </person>
    <person id="ped71" depart="155.52" type="ped_pedestrian">
        <personTrip from="1240524439" to="710480610" modes="public"/>
    </person>
    <person id="ped72" depart="157.71" type="ped_pedestrian">
        <personTrip from="28025837#2" to="1042457224#3" modes="public"/>
    </person>
    <person id="ped73" depart="159.90" type="ped_pedestrian">
        <personTrip from="335825755#0" to="49016409" modes="public"/>
    </person>
    <person id="ped74" depart="162.09" type="ped_pedestrian">
        <personTrip from="102154817#1" to="1285216303#1" modes="public"/>
    </person>
    <person id="ped75" depart="164.28" type="ped_pedestrian">
        <personTrip from="979396014" to="423638485" modes="public"/>
    </person>
    <person id="ped76" depart="166.47" type="ped_pedestrian">
        <personTrip from="29487062#1" to="334156471#6" modes="public"/>
    </person>
    <person id="ped77" depart="168.66" type="ped_pedestrian">
        <personTrip from="-570379829#1" to="116821934" modes="public"/>
    </person>
    <person id="ped78" depart="170.85" type="ped_pedestrian">
        <personTrip from="1288776381#0" to="376671611#1" modes="public"/>
    </person>
    <person id="ped79" depart="173.04" type="ped_pedestrian">
        <personTrip from="1176704574#1" to="1124860507#3" modes="public"/>
    </person>
    <person id="ped80" depart="175.24" type="ped_pedestrian">
        <personTrip from="-334382540#6" to="409111731#1" modes="public"/>
    </person>
    <person id="ped81" depart="177.43" type="ped_pedestrian">
        <personTrip from="1176321089#1" to="7726291#4" modes="public"/>
    </person>
    <person id="ped82" depart="179.62" type="ped_pedestrian">
        <personTrip from="695998213" to="-334382540#5" modes="public"/>
    </person>
    <person id="ped83" depart="181.81" type="ped_pedestrian">
        <personTrip from="1199760271#1" to="4328770#2" modes="public"/>
    </person>
    <person id="ped84" depart="184.00" type="ped_pedestrian">
        <personTrip from="107467872#1" to="-690824245" modes="public"/>
    </person>
    <person id="ped85" depart="186.19" type="ped_pedestrian">
        <personTrip from="7972546" to="344003636" modes="public"/>
    </person>
    <person id="ped86" depart="188.38" type="ped_pedestrian">
        <personTrip from="31053386#4" to="549551729#5" modes="public"/>
    </person>
    <person id="ped87" depart="190.57" type="ped_pedestrian">
        <personTrip from="627773356#2" to="1016940344" modes="public"/>
    </person>
    <person id="ped88" depart="192.76" type="ped_pedestrian">
        <personTrip from="-4328791" to="29001648#5" modes="public"/>
    </person>
    <person id="ped89" depart="194.95" type="ped_pedestrian">
        <personTrip from="28025998#1" to="31053374#0" modes="public"/>
    </person>
    <person id="ped90" depart="197.14" type="ped_pedestrian">
        <personTrip from="49016406#2" to="4328786#2" modes="public"/>
    </person>
    <person id="ped91" depart="199.33" type="ped_pedestrian">
        <personTrip from="941003619" to="-4346292#4" modes="public"/>
    </person>
    <person id="ped92" depart="201.52" type="ped_pedestrian">
        <personTrip from="214456050" to="1288890363#2" modes="public"/>
    </person>
    <person id="ped93" depart="203.71" type="ped_pedestrian">
        <personTrip from="696002593#2" to="1202333088#15" modes="public"/>
    </person>
    <person id="ped94" depart="205.90" type="ped_pedestrian">
        <personTrip from="1016940343" to="306739053#4" modes="public"/>
    </person>
    <person id="ped95" depart="208.09" type="ped_pedestrian">
        <personTrip from="27452821#2" to="127937398#1" modes="public"/>
    </person>
    <person id="ped96" depart="210.28" type="ped_pedestrian">
        <personTrip from="1202333088#6" to="7971492" modes="public"/>
    </person>
    <person id="ped97" depart="212.47" type="ped_pedestrian">
        <personTrip from="302580240#0" to="696002593#1" modes="public"/>
    </person>
    <person id="ped98" depart="214.66" type="ped_pedestrian">
        <personTrip from="336635029" to="-320668245#1" modes="public"/>
    </person>
    <person id="ped99" depart="216.85" type="ped_pedestrian">
        <personTrip from="992011777#2" to="695993049" modes="public"/>
    </person>
    <person id="ped100" depart="219.04" type="ped_pedestrian">
        <personTrip from="866464519#2" to="7971564#1" modes="public"/>
    </person>
    <person id="ped101" depart="221.23" type="ped_pedestrian">
        <personTrip from="695994349#1" to="-85518639" modes="public"/>
    </person>
    <person id="ped102" depart="223.43" type="ped_pedestrian">
        <personTrip from="31234179#1" to="107465465" modes="public"/>
    </person>
    <person id="ped103" depart="225.62" type="ped_pedestrian">
        <personTrip from="205120462#1" to="-334156471#14" modes="public"/>
    </person>
    <person id="ped104" depart="227.81" type="ped_pedestrian">
        <personTrip from="166995500#0" to="948384124#1" modes="public"/>
    </person>
    <person id="ped105" depart="230.00" type="ped_pedestrian">
        <personTrip from="1240524439" to="549551729#3" modes="public"/>
    </person>
    <person id="ped106" depart="232.19" type="ped_pedestrian">
        <personTrip from="30914847#2" to="28025837#2" modes="public"/>
    </person>
    <person id="ped107" depart="234.38" type="ped_pedestrian">
        <personTrip from="82567681#0" to="979396015#0" modes="public"/>
    </person>
    <person id="ped108" depart="236.57" type="ped_pedestrian">
        <personTrip from="336635034#6" to="453626028#1" modes="public"/>
    </person>
    <person id="ped109" depart="238.76" type="ped_pedestrian">
        <personTrip from="-7972664#6" to="1285156723#7" modes="public"/>
    </person>
    <person id="ped110" depart="240.95" type="ped_pedestrian">
        <personTrip from="866464519#1" to="354973274#1" modes="public"/>
    </person>
    <person id="ped111" depart="243.14" type="ped_pedestrian">
        <personTrip from="335911678#2" to="548794182#2" modes="public"/>
    </person>
    <person id="ped112" depart="245.33" type="ped_pedestrian">
        <personTrip from="-334156471#1" to="361273673#5" modes="public"/>
    </person>
    <person id="ped113" depart="247.52" type="ped_pedestrian">
        <personTrip from="32860461" to="695994642" modes="public"/>
    </person>
    <person id="ped114" depart="249.71" type="ped_pedestrian">
        <personTrip from="-7972698#1" to="85518596#1" modes="public"/>
    </person>
    <person id="ped115" depart="251.90" type="ped_pedestrian">
        <personTrip from="-398751337#3" to="1008751302#3" modes="public"/>
    </person>
    <person id="ped116" depart="254.09" type="ped_pedestrian">
        <personTrip from="380215445#1" to="4328789#0" modes="public"/>
    </person>
    <person id="ped117" depart="256.28" type="ped_pedestrian">
        <personTrip from="119181120#1" to="-562027284#1" modes="public"/>
    </person>
    <person id="ped118" depart="258.47" type="ped_pedestrian">
        <personTrip from="749311666#5" to="1202333086#0" modes="public"/>
    </person>
    <person id="ped119" depart="260.66" type="ped_pedestrian">
        <personTrip from="380215444" to="388101149#1" modes="public"/>
    </person>
    <person id="ped120" depart="262.85" type="ped_pedestrian">
        <personTrip from="26632409#1" to="361273673#3" modes="public"/>
    </person>
    <person id="ped121" depart="265.04" type="ped_pedestrian">
        <personTrip from="334164466#3" to="7972537#0" modes="public"/>
    </person>
    <person id="ped122" depart="267.23" type="ped_pedestrian">
        <personTrip from="102154829#2" to="4519466#0" modes="public"/>
    </person>
    <person id="ped123" depart="269.42" type="ped_pedestrian">
        <personTrip from="1199770535#0" to="202214510#12" modes="public"/>
    </person>
    <person id="ped124" depart="271.61" type="ped_pedestrian">
        <personTrip from="4328778#3" to="1285156728#4" modes="public"/>
    </person>
    <person id="ped125" depart="273.81" type="ped_pedestrian">
        <personTrip from="1285216314" to="548874631#5" modes="public"/>
    </person>
    <person id="ped126" depart="276.00" type="ped_pedestrian">
        <personTrip from="-334731363#1" to="30914856#4" modes="public"/>
    </person>
    <person id="ped127" depart="278.19" type="ped_pedestrian">
        <personTrip from="981281943" to="980087507" modes="public"/>
    </person>
    <person id="ped128" depart="280.38" type="ped_pedestrian">
        <personTrip from="-335717551#0" to="1058209099#0" modes="public"/>
    </person>
    <person id="ped129" depart="282.57" type="ped_pedestrian">
        <personTrip from="1240524439" to="7972372#2" modes="public"/>
    </person>
    <person id="ped130" depart="284.76" type="ped_pedestrian">
        <personTrip from="73832610#0" to="73832608#4" modes="public"/>
    </person>
    <person id="ped131" depart="286.95" type="ped_pedestrian">
        <personTrip from="151362340#0" to="-7972698#2" modes="public"/>
    </person>
    <person id="ped132" depart="289.14" type="ped_pedestrian">
        <personTrip from="695993045#2" to="4487155#3" modes="public"/>
    </person>
    <person id="ped133" depart="291.33" type="ped_pedestrian">
        <personTrip from="387848377" to="951997919#1" modes="public"/>
    </person>
    <person id="ped134" depart="293.52" type="ped_pedestrian">
        <personTrip from="427966236#5" to="-1211372894#1" modes="public"/>
    </person>
    <person id="ped135" depart="295.71" type="ped_pedestrian">
        <personTrip from="664612606#3" to="1285156728#2" modes="public"/>
    </person>
    <person id="ped136" depart="297.90" type="ped_pedestrian">
        <personTrip from="431767937#3" to="7972664#0" modes="public"/>
    </person>
    <person id="ped137" depart="300.09" type="ped_pedestrian">
        <personTrip from="-7642938" to="-548874634#0" modes="public"/>
    </person>
    <person id="ped138" depart="302.28" type="ped_pedestrian">
        <personTrip from="-470067937#4" to="336635034#11" modes="public"/>
    </person>
    <person id="ped139" depart="304.47" type="ped_pedestrian">
        <personTrip from="1260545323#0" to="380472817#0" modes="public"/>
    </person>
    <person id="ped140" depart="306.66" type="ped_pedestrian">
        <personTrip from="4522049#2" to="102154827" modes="public"/>
    </person>
    <person id="ped141" depart="308.85" type="ped_pedestrian">
        <personTrip from="409114847#0" to="1240524436#4" modes="public"/>
    </person>
    <person id="ped142" depart="311.04" type="ped_pedestrian">
        <personTrip from="31309326#4" to="7726291#3" modes="public"/>
    </person>
    <person id="ped143" depart="313.23" type="ped_pedestrian">
        <personTrip from="695994342#1" to="-4328777#0" modes="public"/>
    </person>
    <person id="ped144" depart="315.42" type="ped_pedestrian">
        <personTrip from="28025998#1" to="1279075086#1" modes="public"/>
    </person>
    <person id="ped145" depart="317.61" type="ped_pedestrian">
        <personTrip from="-1175040456#3" to="549532290#1" modes="public"/>
    </person>
    <person id="ped146" depart="319.80" type="ped_pedestrian">
        <personTrip from="409114852#0" to="1240524430#0" modes="public"/>
    </person>
    <person id="ped147" depart="322.00" type="ped_pedestrian">
        <personTrip from="537378736#1" to="336635033#0" modes="public"/>
    </person>
    <person id="ped148" depart="324.19" type="ped_pedestrian">
        <personTrip from="29001468" to="-1211372901" modes="public"/>
    </person>
    <person id="ped149" depart="326.38" type="ped_pedestrian">
        <personTrip from="-345305584#4" to="73832614#3" modes="public"/>
    </person>
    <person id="ped150" depart="328.57" type="ped_pedestrian">
        <personTrip from="7712508#2" to="336635020#11" modes="public"/>
    </person>
    <person id="ped151" depart="330.76" type="ped_pedestrian">
        <personTrip from="695993045#5" to="361266043" modes="public"/>
    </person>
    <person id="ped152" depart="332.95" type="ped_pedestrian">
        <personTrip from="-7971925#0" to="-686213113" modes="public"/>
    </person>
    <person id="ped153" depart="335.14" type="ped_pedestrian">
        <personTrip from="1285156749" to="7643050#1" modes="public"/>
    </person>
    <person id="ped154" depart="337.33" type="ped_pedestrian">
        <personTrip from="591672036#1" to="696002592" modes="public"/>
    </person>
    <person id="ped155" depart="339.52" type="ped_pedestrian">
        <personTrip from="7643050#1" to="103151390#1" modes="public"/>
    </person>
    <person id="ped156" depart="341.71" type="ped_pedestrian">
        <personTrip from="1202333088#5" to="-4487521#2" modes="public"/>
    </person>
    <person id="ped157" depart="343.90" type="ped_pedestrian">
        <personTrip from="549551719" to="73832617#3" modes="public"/>
    </person>
    <person id="ped158" depart="346.09" type="ped_pedestrian">
        <personTrip from="23621789#3" to="388101150#1" modes="public"/>
    </person>
    <person id="ped159" depart="348.28" type="ped_pedestrian">
        <personTrip from="-7972664#3" to="7971934#2" modes="public"/>
    </person>
    <person id="ped160" depart="350.47" type="ped_pedestrian">
        <personTrip from="696002600" to="896274306#0" modes="public"/>
    </person>
    <person id="ped161" depart="352.66" type="ped_pedestrian">
        <personTrip from="651525544#0" to="73832612" modes="public"/>
    </person>
    <person id="ped162" depart="354.85" type="ped_pedestrian">
        <personTrip from="-23689800#0" to="511895636" modes="public"/>
    </person>
    <person id="ped163" depart="357.04" type="ped_pedestrian">
        <personTrip from="1286633550#4" to="7971935" modes="public"/>
    </person>
    <person id="ped164" depart="359.23" type="ped_pedestrian">
        <personTrip from="5930462" to="696002598" modes="public"/>
    </person>
    <person id="ped165" depart="361.42" type="ped_pedestrian">
        <personTrip from="651525544#0" to="1240524443" modes="public"/>
    </person>
    <person id="ped166" depart="363.61" type="ped_pedestrian">
        <personTrip from="555513758#1" to="-48408655" modes="public"/>
    </person>
    <person id="ped167" depart="365.80" type="ped_pedestrian">
        <personTrip from="70955584#2" to="695997899" modes="public"/>
    </person>
    <person id="ped168" depart="367.99" type="ped_pedestrian">
        <personTrip from="1137690633#0" to="664612606#1" modes="public"/>
    </person>
    <person id="ped169" depart="370.18" type="ped_pedestrian">
        <personTrip from="31021401" to="1285156735#0" modes="public"/>
    </person>
    <person id="ped170" depart="372.38" type="ped_pedestrian">
        <personTrip from="58963928#0" to="1176321085" modes="public"/>
    </person>
    <person id="ped171" depart="374.57" type="ped_pedestrian">
        <personTrip from="-214456050" to="102154791#2" modes="public"/>
    </person>
    <person id="ped172" depart="376.76" type="ped_pedestrian">
        <personTrip from="1286420525#5" to="696002599" modes="public"/>
    </person>
    <person id="ped173" depart="378.95" type="ped_pedestrian">
        <personTrip from="865923366#1" to="1279589937" modes="public"/>
    </person>
    <person id="ped174" depart="381.14" type="ped_pedestrian">
        <personTrip from="412525046#6" to="205119473#0" modes="public"/>
    </person>
    <person id="ped175" depart="383.33" type="ped_pedestrian">
        <personTrip from="902239495" to="335819317#8" modes="public"/>
    </person>
    <person id="ped176" depart="385.52" type="ped_pedestrian">
        <personTrip from="7972664#1" to="-548874633#4" modes="public"/>
    </person>
    <person id="ped177" depart="387.71" type="ped_pedestrian">
        <personTrip from="866464520#4" to="1005996748" modes="public"/>
    </person>
    <person id="ped178" depart="389.90" type="ped_pedestrian">
        <personTrip from="859877408" to="1240524440" modes="public"/>
    </person>
    <person id="ped179" depart="392.09" type="ped_pedestrian">
        <personTrip from="-48408678" to="29230555#0" modes="public"/>
    </person>
    <person id="ped180" depart="394.28" type="ped_pedestrian">
        <personTrip from="49016406#0" to="1285216310#1" modes="public"/>
    </person>
    <person id="ped181" depart="396.47" type="ped_pedestrian">
        <personTrip from="380472819#3" to="334102411#7" modes="public"/>
    </person>
    <person id="ped182" depart="398.66" type="ped_pedestrian">
        <personTrip from="174811772#0" to="353932523#1" modes="public"/>
    </person>
    <person id="ped183" depart="400.85" type="ped_pedestrian">
        <personTrip from="1211372901" to="4518853#1" modes="public"/>
    </person>
    <person id="ped184" depart="403.04" type="ped_pedestrian">
        <personTrip from="-107465464" to="7971563#0" modes="public"/>
    </person>
    <person id="ped185" depart="405.23" type="ped_pedestrian">
        <personTrip from="335819322#2" to="461043899#2" modes="public"/>
    </person>
    <person id="ped186" depart="407.42" type="ped_pedestrian">
        <personTrip from="537378746" to="4328778#0" modes="public"/>
    </person>
    <person id="ped187" depart="409.61" type="ped_pedestrian">
        <personTrip from="151189242#1" to="-334382540#2" modes="public"/>
    </person>
    <person id="ped188" depart="411.80" type="ped_pedestrian">
        <personTrip from="4319472" to="1286420527#4" modes="public"/>
    </person>
    <person id="ped189" depart="413.99" type="ped_pedestrian">
        <personTrip from="1285216310#2" to="695994348" modes="public"/>
    </person>
    <person id="ped190" depart="416.18" type="ped_pedestrian">
        <personTrip from="4616510#0" to="1285156728#6" modes="public"/>
    </person>
    <person id="ped191" depart="418.37" type="ped_pedestrian">
        <personTrip from="1285156759" to="23621792#4" modes="public"/>
    </person>
    <person id="ped192" depart="420.57" type="ped_pedestrian">
        <personTrip from="205120467" to="1285156723#3" modes="public"/>
    </person>
    <person id="ped193" depart="422.76" type="ped_pedestrian">
        <personTrip from="-686213113" to="26673683#1" modes="public"/>
    </person>
    <person id="ped194" depart="424.95" type="ped_pedestrian">
        <personTrip from="7972665#0" to="4328790#3" modes="public"/>
    </person>
    <person id="ped195" depart="427.14" type="ped_pedestrian">