<?xml version="1.0" encoding="UTF-8"?>

<!-- generated on 2024-06-24 12:40:30.599833 by osmWebWizard.py v1_19_0+0000-baa66a0f364
<configuration>
    <net-file value="C:\Users\Jaime\Sumo\2024-06-24-12-40-15\osm.net.xml.gz"/>
    <additional-files value="C:\Users\Jaime\Sumo\2024-06-24-12-40-15\osm_stops.add.xml,C:\Users\Jaime\Sumo\2024-06-24-12-40-15\osm_pt.rou.xml"/>
    <output-trip-file value="C:\Users\Jaime\Sumo\2024-06-24-12-40-15\osm.pedestrian.trips.xml"/>
    <route-file value="C:\Users\Jaime\Sumo\2024-06-24-12-40-15\osm.pedestrian.rou.xml"/>
    <persontrips value="True"/>
    <persontrip.walk-opposite-factor value="0.8"/>
    <prefix value="ped"/>
    <trip-attributes value="modes=&quot;public&quot;"/>
    <vehicle-class value="pedestrian"/>
    <fringe-factor value="1"/>
    <end value="2000.0"/>
    <insertion-density value="10.0"/>
</configuration>
-->

<routes xmlns:xsi="http://www.w3.org/2001/XMLSchema-instance" xsi:noNamespaceSchemaLocation="http://sumo.dlr.de/xsd/routes_file.xsd">
    <vType id="ped_pedestrian" vClass="pedestrian"/>
    <person id="ped0" depart="0.00" type="ped_pedestrian">
        <personTrip from="26733828#1" to="-1156321910#1" modes="public"/>
    </person>
    <person id="ped1" depart="3.58" type="ped_pedestrian">
        <personTrip from="1132411882#3" to="1087301108#0" modes="public"/>
    </person>
    <person id="ped2" depart="7.16" type="ped_pedestrian">
        <personTrip from="378150074#0" to="312392972#2" modes="public"/>
    </person>
    <person id="ped3" depart="10.74" type="ped_pedestrian">
        <personTrip from="68647306#4" to="-340498976#9" modes="public"/>
    </person>
    <person id="ped4" depart="14.33" type="ped_pedestrian">
        <personTrip from="1215087308#1" to="-1157270240#0" modes="public"/>
    </person>
    <person id="ped5" depart="17.91" type="ped_pedestrian">
        <personTrip from="1087301102#1" to="132460631#0" modes="public"/>
    </person>
    <person id="ped6" depart="21.49" type="ped_pedestrian">
        <personTrip from="-1157111068#0" to="1077812495#0" modes="public"/>
    </person>
    <person id="ped7" depart="25.07" type="ped_pedestrian">
        <personTrip from="274524377#1" to="175192743#0" modes="public"/>
    </person>
    <person id="ped8" depart="28.65" type="ped_pedestrian">
        <personTrip from="1087301106#3" to="230015276" modes="public"/>
    </person>
    <person id="ped9" depart="32.23" type="ped_pedestrian">
        <personTrip from="465376245#1" to="-111833185#0" modes="public"/>
    </person>
    <person id="ped10" depart="35.81" type="ped_pedestrian">
        <personTrip from="46517262#3" to="335576640" modes="public"/>
    </person>
    <person id="ped11" depart="39.40" type="ped_pedestrian">
        <personTrip from="1158764597" to="1037138981#1" modes="public"/>
    </person>
    <person id="ped12" depart="42.98" type="ped_pedestrian">
        <personTrip from="886176764#1" to="1158584612#0" modes="public"/>
    </person>
    <person id="ped13" depart="46.56" type="ped_pedestrian">
        <personTrip from="-410310755#2" to="-4402228" modes="public"/>
    </person>
    <person id="ped14" depart="50.14" type="ped_pedestrian">
        <personTrip from="517220246#1" to="23852035#1" modes="public"/>
    </person>
    <person id="ped15" depart="53.72" type="ped_pedestrian">
        <personTrip from="465218213" to="375901779#1" modes="public"/>
    </person>
    <person id="ped16" depart="57.30" type="ped_pedestrian">
        <personTrip from="170392872" to="915958605#3" modes="public"/>
    </person>
    <person id="ped17" depart="60.88" type="ped_pedestrian">
        <personTrip from="1173733854#31" to="194069449#1" modes="public"/>
    </person>
    <person id="ped18" depart="64.47" type="ped_pedestrian">
        <personTrip from="4840977#0" to="254339591#0" modes="public"/>
    </person>
    <person id="ped19" depart="68.05" type="ped_pedestrian">
        <personTrip from="561816966" to="202157031#3" modes="public"/>
    </person>
    <person id="ped20" depart="71.63" type="ped_pedestrian">
        <personTrip from="335703511#0" to="-1225731572#1" modes="public"/>
    </person>
    <person id="ped21" depart="75.21" type="ped_pedestrian">
        <personTrip from="1088748335#2" to="1134722788" modes="public"/>
    </person>
    <person id="ped22" depart="78.79" type="ped_pedestrian">
        <personTrip from="-30721660#3" to="1088754431#2" modes="public"/>
    </person>
    <person id="ped23" depart="82.37" type="ped_pedestrian">
        <personTrip from="-4570580#1" to="1133457737#1" modes="public"/>
    </person>
    <person id="ped24" depart="85.95" type="ped_pedestrian">
        <personTrip from="260138641#1" to="1171464775#2" modes="public"/>
    </person>
    <person id="ped25" depart="89.54" type="ped_pedestrian">
        <personTrip from="1173675373#14" to="1085398475#1" modes="public"/>
    </person>
    <person id="ped26" depart="93.12" type="ped_pedestrian">
        <personTrip from="1126615536#2" to="836424814" modes="public"/>
    </person>
    <person id="ped27" depart="96.70" type="ped_pedestrian">
        <personTrip from="274524371" to="25294728#0" modes="public"/>
    </person>
    <person id="ped28" depart="100.28" type="ped_pedestrian">
        <personTrip from="1070124293#1" to="375901776#7" modes="public"/>
    </person>
    <person id="ped29" depart="103.86" type="ped_pedestrian">
        <personTrip from="104786912#3" to="1173733854#35" modes="public"/>
    </person>
    <person id="ped30" depart="107.44" type="ped_pedestrian">
        <personTrip from="942234134" to="274513542" modes="public"/>
    </person>
    <person id="ped31" depart="111.02" type="ped_pedestrian">
        <personTrip from="194962998#2" to="320454751" modes="public"/>
    </person>
    <person id="ped32" depart="114.61" type="ped_pedestrian">
        <personTrip from="51167934#1" to="4402037#2" modes="public"/>
    </person>
    <person id="ped33" depart="118.19" type="ped_pedestrian">
        <personTrip from="1088748335#7" to="-1157384569#0" modes="public"/>
    </person>
    <person id="ped34" depart="121.77" type="ped_pedestrian">
        <personTrip from="1157108530" to="1126615538" modes="public"/>
    </person>
    <person id="ped35" depart="125.35" type="ped_pedestrian">
        <personTrip from="1085398477#1" to="881301601#2" modes="public"/>
    </person>
    <person id="ped36" depart="128.93" type="ped_pedestrian">
        <personTrip from="574993713#0" to="1157108528#0" modes="public"/>
    </person>
    <person id="ped37" depart="132.51" type="ped_pedestrian">
        <personTrip from="280007139#1" to="1190781971#1" modes="public"/>
    </person>
    <person id="ped38" depart="136.09" type="ped_pedestrian">
        <personTrip from="729659094" to="1228768561#1" modes="public"/>
    </person>
    <person id="ped39" depart="139.68" type="ped_pedestrian">
        <personTrip from="1126465703#1" to="1102369942" modes="public"/>
    </person>
    <person id="ped40" depart="143.26" type="ped_pedestrian">
        <personTrip from="195397561#1" to="1124934333#1" modes="public"/>
    </person>
    <person id="ped41" depart="146.84" type="ped_pedestrian">
        <personTrip from="226258269#1" to="687804449" modes="public"/>
    </person>
    <person id="ped42" depart="150.42" type="ped_pedestrian">
        <personTrip from="1199398235#1" to="1087301104" modes="public"/>
    </person>
    <person id="ped43" depart="154.00" type="ped_pedestrian">
        <personTrip from="974193168#1" to="133885750#0" modes="public"/>
    </person>
    <person id="ped44" depart="157.58" type="ped_pedestrian">
        <personTrip from="-409506038#1" to="-1243561432" modes="public"/>
    </person>
    <person id="ped45" depart="161.16" type="ped_pedestrian">
        <personTrip from="-474154190#1" to="254523891" modes="public"/>
    </person>
    <person id="ped46" depart="164.75" type="ped_pedestrian">
        <personTrip from="4610480#1" to="1215087310" modes="public"/>
    </person>
    <person id="ped47" depart="168.33" type="ped_pedestrian">
        <personTrip from="-195089288#1" to="1173733854#5" modes="public"/>
    </person>
    <person id="ped48" depart="171.91" type="ped_pedestrian">
        <personTrip from="974193166#0" to="168940071#6" modes="public"/>
    </person>
    <person id="ped49" depart="175.49" type="ped_pedestrian">
        <personTrip from="915958602#0" to="561326926#0" modes="public"/>
    </person>
    <person id="ped50" depart="179.07" type="ped_pedestrian">
        <personTrip from="-1126465423" to="372616653#4" modes="public"/>
    </person>
    <person id="ped51" depart="182.65" type="ped_pedestrian">
        <personTrip from="31959081#1" to="170852441" modes="public"/>
    </person>
    <person id="ped52" depart="186.24" type="ped_pedestrian">
        <personTrip from="1126615536#2" to="274513551" modes="public"/>
    </person>
    <person id="ped53" depart="189.82" type="ped_pedestrian">
        <personTrip from="-4773029#3" to="1225644852#0" modes="public"/>
    </person>
    <person id="ped54" depart="193.40" type="ped_pedestrian">
        <personTrip from="1228768550#4" to="882671342" modes="public"/>
    </person>
    <person id="ped55" depart="196.98" type="ped_pedestrian">
        <personTrip from="574144564" to="1124934333#3" modes="public"/>
    </person>
    <person id="ped56" depart="200.56" type="ped_pedestrian">
        <personTrip from="1283519827#0" to="1071049522#4" modes="public"/>
    </person>
    <person id="ped57" depart="204.14" type="ped_pedestrian">
        <personTrip from="72157169" to="569067820#0" modes="public"/>
    </person>
    <person id="ped58" depart="207.72" type="ped_pedestrian">
        <personTrip from="1151064388#4" to="263821578" modes="public"/>
    </person>
    <person id="ped59" depart="211.31" type="ped_pedestrian">
        <personTrip from="24540240" to="1037130999#2" modes="public"/>
    </person>
    <person id="ped60" depart="214.89" type="ped_pedestrian">
        <personTrip from="43185669#1" to="170855334" modes="public"/>
    </person>
    <person id="ped61" depart="218.47" type="ped_pedestrian">
        <personTrip from="440946430" to="169067264#1" modes="public"/>
    </person>
    <person id="ped62" depart="222.05" type="ped_pedestrian">
        <personTrip from="-104991251#2" to="1157382623#1" modes="public"/>
    </person>
    <person id="ped63" depart="225.63" type="ped_pedestrian">
        <personTrip from="-1151064391" to="803471188#0" modes="public"/>
    </person>
    <person id="ped64" depart="229.21" type="ped_pedestrian">
        <personTrip from="576287029" to="48664687#2" modes="public"/>
    </person>
    <person id="ped65" depart="232.79" type="ped_pedestrian">
        <personTrip from="1153871239" to="-170370361#1" modes="public"/>
    </person>
    <person id="ped66" depart="236.38" type="ped_pedestrian">
        <personTrip from="576287024" to="882389481" modes="public"/>
    </person>
    <person id="ped67" depart="239.96" type="ped_pedestrian">
        <personTrip from="-340498976#0" to="1249563430#0" modes="public"/>
    </person>
    <person id="ped68" depart="243.54" type="ped_pedestrian">
        <personTrip from="-202157031#4" to="428486925" modes="public"/>
    </person>
    <person id="ped69" depart="247.12" type="ped_pedestrian">
        <personTrip from="43230873#0" to="-589906053#1" modes="public"/>
    </person>
    <person id="ped70" depart="250.70" type="ped_pedestrian">
        <personTrip from="1232425165" to="181587285" modes="public"/>
    </person>
    <person id="ped71" depart="254.28" type="ped_pedestrian">
        <personTrip from="1126465825" to="570058771#1" modes="public"/>
    </person>
    <person id="ped72" depart="257.86" type="ped_pedestrian">
        <personTrip from="1216417114#0" to="1085398477#4" modes="public"/>
    </person>
    <person id="ped73" depart="261.45" type="ped_pedestrian">
        <personTrip from="170855334" to="375901779#1" modes="public"/>
    </person>
    <person id="ped74" depart="265.03" type="ped_pedestrian">
        <personTrip from="1079045025#1" to="1157108519#3" modes="public"/>
    </person>
    <person id="ped75" depart="268.61" type="ped_pedestrian">
        <personTrip from="974193165#0" to="274524377#1" modes="public"/>
    </person>
    <person id="ped76" depart="272.19" type="ped_pedestrian">
        <personTrip from="1225719334" to="153698402#3" modes="public"/>
    </person>
    <person id="ped77" depart="275.77" type="ped_pedestrian">
        <personTrip from="-566154986#1" to="1088515827#1" modes="public"/>
    </person>
    <person id="ped78" depart="279.35" type="ped_pedestrian">
        <personTrip from="1158585780#1" to="229531162#0" modes="public"/>
    </person>
    <person id="ped79" depart="282.93" type="ped_pedestrian">
        <personTrip from="1088754426#0" to="1087301106#2" modes="public"/>
    </person>
    <person id="ped80" depart="286.52" type="ped_pedestrian">
        <personTrip from="-23121445#4" to="254523907#0" modes="public"/>
    </person>
    <person id="ped81" depart="290.10" type="ped_pedestrian">
        <personTrip from="1088748335#6" to="688761154#0" modes="public"/>
    </person>
    <person id="ped82" depart="293.68" type="ped_pedestrian">
        <personTrip from="561049080" to="-23121445#3" modes="public"/>
    </person>
    <person id="ped83" depart="297.26" type="ped_pedestrian">
        <personTrip from="1097921384#0" to="304514893#14" modes="public"/>
    </person>
    <person id="ped84" depart="300.84" type="ped_pedestrian">
        <personTrip from="1087301094#1" to="-705182550" modes="public"/>
    </person>
    <person id="ped85" depart="304.42" type="ped_pedestrian">
        <personTrip from="82654055" to="202157018#0" modes="public"/>
    </person>
    <person id="ped86" depart="308.00" type="ped_pedestrian">
        <personTrip from="1231424278#7" to="442921920#0" modes="public"/>
    </person>
    <person id="ped87" depart="311.59" type="ped_pedestrian">
        <personTrip from="465218214" to="1071210926#18" modes="public"/>
    </person>
    <person id="ped88" depart="315.17" type="ped_pedestrian">
        <personTrip from="-4403559#0" to="1222915688#3" modes="public"/>
    </person>
    <person id="ped89" depart="318.75" type="ped_pedestrian">
        <personTrip from="1216417114#2" to="1228773147#0" modes="public"/>
    </person>
    <person id="ped90" depart="322.33" type="ped_pedestrian">
        <personTrip from="375901776#7" to="304987178#0" modes="public"/>
    </person>
    <person id="ped91" depart="325.91" type="ped_pedestrian">
        <personTrip from="930343901#3" to="-4412868#0" modes="public"/>
    </person>
    <person id="ped92" depart="329.49" type="ped_pedestrian">
        <personTrip from="1212138769#2" to="1158585787#1" modes="public"/>
    </person>
    <person id="ped93" depart="333.07" type="ped_pedestrian">
        <personTrip from="561816965" to="1114794278" modes="public"/>
    </person>
    <person id="ped94" depart="336.66" type="ped_pedestrian">
        <personTrip from="1071210926#17" to="1228674294#2" modes="public"/>
    </person>
    <person id="ped95" depart="340.24" type="ped_pedestrian">
        <personTrip from="1215087308#1" to="1133457741#0" modes="public"/>
    </person>
    <person id="ped96" depart="343.82" type="ped_pedestrian">
        <personTrip from="1114794283" to="780334235" modes="public"/>
    </person>
    <person id="ped97" depart="347.40" type="ped_pedestrian">
        <personTrip from="122820534#1" to="561333203" modes="public"/>
    </person>
    <person id="ped98" depart="350.98" type="ped_pedestrian">
        <personTrip from="181587286#1" to="-131945940" modes="public"/>
    </person>
    <person id="ped99" depart="354.56" type="ped_pedestrian">
        <personTrip from="998298001#0" to="51167561#1" modes="public"/>
    </person>
    <person id="ped100" depart="358.14" type="ped_pedestrian">
        <personTrip from="915958599#2" to="799055783#1" modes="public"/>
    </person>
    <person id="ped101" depart="361.73" type="ped_pedestrian">
        <personTrip from="52480374#0" to="1051150929" modes="public"/>
    </person>
    <person id="ped102" depart="365.31" type="ped_pedestrian">
        <personTrip from="1249563429" to="1087301090#0" modes="public"/>
    </person>
    <person id="ped103" depart="368.89" type="ped_pedestrian">
        <personTrip from="120675240#4" to="-172283311#1" modes="public"/>
    </person>
    <person id="ped104" depart="372.47" type="ped_pedestrian">
        <personTrip from="1173733854#33" to="931745735#1" modes="public"/>
    </person>
    <person id="ped105" depart="376.05" type="ped_pedestrian">
        <personTrip from="1126465825" to="442577419" modes="public"/>
    </person>
    <person id="ped106" depart="379.63" type="ped_pedestrian">
        <personTrip from="1228768552#1" to="1216417114#0" modes="public"/>
    </person>
    <person id="ped107" depart="383.21" type="ped_pedestrian">
        <personTrip from="886176764#1" to="974193165#1" modes="public"/>
    </person>
    <person id="ped108" depart="386.80" type="ped_pedestrian">
        <personTrip from="194177700#0" to="35578576#2" modes="public"/>
    </person>
    <person id="ped109" depart="390.38" type="ped_pedestrian">
        <personTrip from="1037136885#1" to="114667396#2" modes="public"/>
    </person>
    <person id="ped110" depart="393.96" type="ped_pedestrian">
        <personTrip from="915958599#1" to="205728152#2" modes="public"/>
    </person>
    <person id="ped111" depart="397.54" type="ped_pedestrian">
        <personTrip from="171423002#6" to="398295306" modes="public"/>
    </person>
    <person id="ped112" depart="401.12" type="ped_pedestrian">
        <personTrip from="-15977422#1" to="225400609#5" modes="public"/>
    </person>
    <person id="ped113" depart="404.70" type="ped_pedestrian">
        <personTrip from="1293443379#0" to="553121564" modes="public"/>
    </person>
    <person id="ped114" depart="408.28" type="ped_pedestrian">
        <personTrip from="1037153016#2" to="899946811" modes="public"/>
    </person>
    <person id="ped115" depart="411.87" type="ped_pedestrian">
        <personTrip from="-30721660#4" to="1071114543#1" modes="public"/>
    </person>
    <person id="ped116" depart="415.45" type="ped_pedestrian">
        <personTrip from="237519482" to="31112516#2" modes="public"/>
    </person>
    <person id="ped117" depart="419.03" type="ped_pedestrian">
        <personTrip from="1089402876#1" to="-561049082" modes="public"/>
    </person>
    <person id="ped118" depart="422.61" type="ped_pedestrian">
        <personTrip from="66071379#1" to="1102369941" modes="public"/>
    </person>
    <person id="ped119" depart="426.19" type="ped_pedestrian">
        <personTrip from="234463931#1" to="254339591#3" modes="public"/>
    </person>
    <person id="ped120" depart="429.77" type="ped_pedestrian">
        <personTrip from="1215085509#2" to="225400609#3" modes="public"/>
    </person>
    <person id="ped121" depart="433.35" type="ped_pedestrian">
        <personTrip from="15971191#0" to="82168031" modes="public"/>
    </person>
    <person id="ped122" depart="436.94" type="ped_pedestrian">
        <personTrip from="1079045030#0" to="345088524#1" modes="public"/>
    </person>
    <person id="ped123" depart="440.52" type="ped_pedestrian">
        <personTrip from="1097921384#3" to="1190781972#1" modes="public"/>
    </person>
    <person id="ped124" depart="444.10" type="ped_pedestrian">
        <personTrip from="304514893#9" to="1151064400#0" modes="public"/>
    </person>
    <person id="ped125" depart="447.68" type="ped_pedestrian">
        <personTrip from="1157111067#1" to="410310755#7" modes="public"/>
    </person>
    <person id="ped126" depart="451.26" type="ped_pedestrian">
        <personTrip from="-234463931#0" to="1228768557#6" modes="public"/>
    </person>
    <person id="ped127" depart="454.84" type="ped_pedestrian">
        <personTrip from="991766437" to="974193166#0" modes="public"/>
    </person>
    <person id="ped128" depart="458.42" type="ped_pedestrian">
        <personTrip from="-23852035#0" to="1085398480#2" modes="public"/>
    </person>
    <person id="ped129" depart="462.01" type="ped_pedestrian">
        <personTrip from="1126465825" to="803483082#1" modes="public"/>
    </person>
    <person id="ped130" depart="465.59" type="ped_pedestrian">
        <personTrip from="585841588" to="576287034" modes="public"/>
    </person>
    <person id="ped131" depart="469.17" type="ped_pedestrian">
        <personTrip from="1173675373#11" to="1037153016#3" modes="public"/>
    </person>
    <person id="ped132" depart="472.75" type="ped_pedestrian">
        <personTrip from="504442989" to="335576652#4" modes="public"/>
    </person>
    <person id="ped133" depart="476.33" type="ped_pedestrian">
        <personTrip from="25303637#1" to="941599318#0" modes="public"/>
    </person>
    <person id="ped134" depart="479.91" type="ped_pedestrian">
        <personTrip from="27628628#1" to="-1119938072#0" modes="public"/>
    </person>
    <person id="ped135" depart="483.49" type="ped_pedestrian">
        <personTrip from="475297457#4" to="1151064391" modes="public"/>
    </person>
    <person id="ped136" depart="487.08" type="ped_pedestrian">
        <personTrip from="288005046#3" to="868590782" modes="public"/>
    </person>
    <person id="ped137" depart="490.66" type="ped_pedestrian">
        <personTrip from="-72678525" to="-51167934#4" modes="public"/>
    </person>
    <person id="ped138" depart="494.24" type="ped_pedestrian">
        <personTrip from="-4611696#5" to="194073677#1" modes="public"/>
    </person>
    <person id="ped139" depart="497.82" type="ped_pedestrian">
        <personTrip from="1132080498" to="23852046#2" modes="public"/>
    </person>
    <person id="ped140" depart="501.40" type="ped_pedestrian">
        <personTrip from="35578559" to="1079045029#3" modes="public"/>
    </person>
    <person id="ped141" depart="504.98" type="ped_pedestrian">
        <personTrip from="260138639#1" to="1124934333#6" modes="public"/>
    </person>
    <person id="ped142" depart="508.57" type="ped_pedestrian">
        <personTrip from="1254638136" to="688445665#3" modes="public"/>
    </person>
    <person id="ped143" depart="512.15" type="ped_pedestrian">
        <personTrip from="51236796" to="-409507435#2" modes="public"/>
    </person>
    <person id="ped144" depart="515.73" type="ped_pedestrian">
        <personTrip from="1216417114#2" to="1132411883#4" modes="public"/>
    </person>
    <person id="ped145" depart="519.31" type="ped_pedestrian">
        <personTrip from="-1101961674#2" to="437500499#0" modes="public"/>
    </person>
    <person id="ped146" depart="522.89" type="ped_pedestrian">
        <personTrip from="260138647#0" to="1124928841#4" modes="public"/>
    </person>
    <person id="ped147" depart="526.47" type="ped_pedestrian">
        <personTrip from="383505780#0" to="194069449#0" modes="public"/>
    </person>
    <person id="ped148" depart="530.05" type="ped_pedestrian">
        <personTrip from="1218509920" to="-1124918890#1" modes="public"/>
    </person>
    <person id="ped149" depart="533.64" type="ped_pedestrian">
        <personTrip from="-25945967#0" to="59286500#4" modes="public"/>
    </person>
    <person id="ped150" depart="537.22" type="ped_pedestrian">
        <personTrip from="688445662#1" to="175499827" modes="public"/>
    </person>
    <person id="ped151" depart="540.80" type="ped_pedestrian">
        <personTrip from="507302539" to="225400606#3" modes="public"/>
    </person>
    <person id="ped152" depart="544.38" type="ped_pedestrian">
        <personTrip from="1025247926#0" to="-576287035" modes="public"/>
    </person>
    <person id="ped153" depart="547.96" type="ped_pedestrian">
        <personTrip from="1155225999#0" to="687804451#2" modes="public"/>
    </person>
    <person id="ped154" depart="551.54" type="ped_pedestrian">
        <personTrip from="4611693#1" to="561326926#0" modes="public"/>
    </person>
    <person id="ped155" depart="555.12" type="ped_pedestrian">
        <personTrip from="687804451#2" to="1085398476#0" modes="public"/>
    </person>
    <person id="ped156" depart="558.71" type="ped_pedestrian">
        <personTrip from="1114794282" to="-4610479#1" modes="public"/>
    </person>
    <person id="ped157" depart="562.29" type="ped_pedestrian">
        <personTrip from="440946436#2" to="606078064#1" modes="public"/>
    </person>
    <person id="ped158" depart="565.87" type="ped_pedestrian">
        <personTrip from="1212138779#7" to="254339592#1" modes="public"/>
    </person>
    <person id="ped159" depart="569.45" type="ped_pedestrian">
        <personTrip from="1037136885#1" to="803471189" modes="public"/>
    </person>
    <person id="ped160" depart="573.03" type="ped_pedestrian">
        <personTrip from="566154989#2" to="915958611#1" modes="public"/>
    </person>
    <person id="ped161" depart="576.61" type="ped_pedestrian">
        <personTrip from="465376251#1" to="589906053#1" modes="public"/>
    </person>
    <person id="ped162" depart="580.19" type="ped_pedestrian">
        <personTrip from="-1156321910#1" to="378150074#0" modes="public"/>
    </person>
    <person id="ped163" depart="583.78" type="ped_pedestrian">
        <personTrip from="1158551338" to="803471191#2" modes="public"/>
    </person>
    <person id="ped164" depart="587.36" type="ped_pedestrian">
        <personTrip from="463829469#2" to="566154986#1" modes="public"/>
    </person>
    <person id="ped165" depart="590.94" type="ped_pedestrian">
        <personTrip from="465376251#1" to="1126615536#2" modes="public"/>
    </person>
    <person id="ped166" depart="594.52" type="ped_pedestrian">
        <personTrip from="449849683" to="-4612968#1" modes="public"/>
    </person>
    <person id="ped167" depart="598.10" type="ped_pedestrian">
        <personTrip from="569067828" to="557076776#2" modes="public"/>
    </person>
    <person id="ped168" depart="601.68" type="ped_pedestrian">
        <personTrip from="1087301107#1" to="475297457#2" modes="public"/>
    </person>
    <person id="ped169" depart="605.26" type="ped_pedestrian">
        <personTrip from="1228768561#6" to="1152979768" modes="public"/>
    </person>
    <person id="ped170" depart="608.85" type="ped_pedestrian">
        <personTrip from="4610599" to="1088748335#11" modes="public"/>
    </person>
    <person id="ped171" depart="612.43" type="ped_pedestrian">
        <personTrip from="-1156321907#0" to="1071210926#5" modes="public"/>
    </person>
    <person id="ped172" depart="616.01" type="ped_pedestrian">
        <personTrip from="1158536779#3" to="566154986#2" modes="public"/>
    </person>
    <person id="ped173" depart="619.59" type="ped_pedestrian">
        <personTrip from="915958590#4" to="1133457741#3" modes="public"/>
    </person>
    <person id="ped174" depart="623.17" type="ped_pedestrian">
        <personTrip from="274513558" to="1199398235#2" modes="public"/>
    </person>
    <person id="ped175" depart="626.75" type="ped_pedestrian">
        <personTrip from="915958621#3" to="170392872" modes="public"/>
    </person>
    <person id="ped176" depart="630.33" type="ped_pedestrian">
        <personTrip from="881245039" to="-51167934#4" modes="public"/>
    </person>
    <person id="ped177" depart="633.92" type="ped_pedestrian">
        <personTrip from="915958601#3" to="1071049522#4" modes="public"/>
    </person>
    <person id="ped178" depart="637.50" type="ped_pedestrian">
        <personTrip from="906672303#0" to="1126496149" modes="public"/>
    </person>
    <person id="ped179" depart="641.08" type="ped_pedestrian">
        <personTrip from="-46140382" to="1224670641#1" modes="public"/>
    </person>
    <person id="ped180" depart="644.66" type="ped_pedestrian">
        <personTrip from="375901776#5" to="1157108521#0" modes="public"/>
    </person>
    <person id="ped181" depart="648.24" type="ped_pedestrian">
        <personTrip from="23852053#1" to="133957854" modes="public"/>
    </person>
    <person id="ped182" depart="651.82" type="ped_pedestrian">
        <personTrip from="1174259940#5" to="202157031#1" modes="public"/>
    </person>
    <person id="ped183" depart="655.40" type="ped_pedestrian">
        <personTrip from="1120378082#0" to="339201177#3" modes="public"/>
    </person>
    <person id="ped184" depart="658.99" type="ped_pedestrian">
        <personTrip from="-1076059866" to="796446835#2" modes="public"/>
    </person>
    <person id="ped185" depart="662.57" type="ped_pedestrian">
        <personTrip from="170852466" to="365489673" modes="public"/>
    </person>
    <person id="ped186" depart="666.15" type="ped_pedestrian">
        <personTrip from="38711947#0" to="304514893#6" modes="public"/>
    </person>
    <person id="ped187" depart="669.73" type="ped_pedestrian">
        <personTrip from="1171464775#0" to="-23121445#0" modes="public"/>
    </person>
    <person id="ped188" depart="673.31" type="ped_pedestrian">
        <personTrip from="288005046#6" to="1158551334" modes="public"/>
    </person>
    <person id="ped189" depart="676.89" type="ped_pedestrian">
        <personTrip from="1157108522#0" to="51912365#0" modes="public"/>
    </person>
    <person id="ped190" depart="680.47" type="ped_pedestrian">
        <personTrip from="372616653#0" to="1151064400#1" modes="public"/>
    </person>
    <person id="ped191" depart="684.06" type="ped_pedestrian">
        <personTrip from="1156321910#0" to="1212779622" modes="public"/>
    </person>
    <person id="ped192" depart="687.64" type="ped_pedestrian">
        <personTrip from="1212138769#0" to="1143810934#0" modes="public"/>
    </person>
    <person id="ped193" depart="691.22" type="ped_pedestrian">
        <personTrip from="-576287032" to="1215085513#1" modes="public"/>
    </person>