<?xml version="1.0" encoding="UTF-8"?>

<!-- generated on 2024-06-24 12:45:29 by Eclipse SUMO netconvert Version 1.19.0
<configuration xmlns:xsi="http://www.w3.org/2001/XMLSchema-instance" xsi:noNamespaceSchemaLocation="http://sumo.dlr.de/xsd/netconvertConfiguration.xsd">

    <input>
        <type-files value="${SUMO_HOME}/data/typemap/osmNetconvert.typ.xml,${SUMO_HOME}/data/typemap/osmNetconvertUrbanDe.typ.xml,${SUMO_HOME}/data/typemap/osmNetconvertPedestrians.typ.xml,${SUMO_HOME}/data/typemap/osmNetconvertAerialway.typ.xml"/>
        <osm-files value="osm_bbox.osm.xml.gz"/>
    </input>

    <output>
        <output-file value="osm.net.xml.gz"/>
        <output.street-names value="true"/>
        <output.original-names value="true"/>
        <ptstop-output value="osm_stops.add.xml"/>
        <ptline-output value="osm_ptlines.xml"/>
    </output>

    <projection>
        <proj.utm value="true"/>
    </projection>

    <processing>
        <geometry.remove value="true"/>
        <roundabouts.guess value="true"/>
    </processing>

    <tls_building>
        <tls.discard-simple value="true"/>
        <tls.join value="true"/>
        <tls.guess-signals value="true"/>
        <tls.default-type value="actuated"/>
    </tls_building>

    <ramp_guessing>
        <ramps.guess value="true"/>
    </ramp_guessing>

    <junctions>
        <junctions.join value="true"/>
        <junctions.corner-detail value="5"/>
    </junctions>

    <pedestrian>
        <crossings.guess value="true"/>
    </pedestrian>

    <railway>
        <railway.topology.repair value="true"/>
    </railway>

    <formats>
        <osm.sidewalks value="true"/>
    </formats>

</configuration>
-->

<additional xmlns:xsi="http://www.w3.org/2001/XMLSchema-instance" xsi:noNamespaceSchemaLocation="http://sumo.dlr.de/xsd/additional_file.xsd">
    <busStop id="-1493565877" name="Príncipe Pío" lane="-119181079#1_0" startPos="0.00" endPos="200.00" friendlyPos="true">
        <access lane="1279075084_0" pos="0.00" length="21.03" friendlyPos="1"/>
        <access lane="1279075085_0" pos="0.00" length="22.70" friendlyPos="1"/>
        <access lane="1279075086#0_0" pos="0.00" length="24.22" friendlyPos="1"/>
        <access lane="1279075088#0_0" pos="4.72" length="25.41" friendlyPos="1"/>
        <access lane="1279075088#1_0" pos="1.98" length="23.16" friendlyPos="1"/>
    </busStop>
    <busStop id="-1493565878" name="Príncipe Pío" lane="-156650822_0" startPos="0.00" endPos="200.00" friendlyPos="true">
        <access lane="1279075085_0" pos="0.00" length="22.30" friendlyPos="1"/>
        <access lane="1279075086#0_0" pos="0.00" length="20.77" friendlyPos="1"/>
        <access lane="1279075087_0" pos="0.00" length="18.66" friendlyPos="1"/>
        <access lane="1279075088#3_0" pos="4.11" length="21.40" friendlyPos="1"/>
        <access lane="1279075088#4_0" pos="2.46" length="21.33" friendlyPos="1"/>
    </busStop>
    <busStop id="-22032372" name="Gran Vía" lane="-695991673#0_0" startPos="0.00" endPos="200.00" friendlyPos="true">
        <access lane="335819317#8_0" pos="1.24" length="7.71" friendlyPos="1"/>
        <access lane="695994637_0" pos="1.51" length="8.32" friendlyPos="1"/>
        <access lane="695994638_0" pos="0.22" length="8.75" friendlyPos="1"/>
        <access lane="695994639#0_0" pos="7.11" length="8.25" friendlyPos="1"/>
        <access lane="695994641#0_0" pos="1.07" length="6.79" friendlyPos="1"/>
    </busStop>
    <busStop id="-255881693" name="Rubén Darío" lane="-695991673#0_0" startPos="1805.46" endPos="2005.46" friendlyPos="true"/>
    <busStop id="-25903354" name="Sevilla" lane="-442950301#0_0" startPos="544.46" endPos="744.46" friendlyPos="true">
        <access lane="1286414025#1_0" pos="10.41" length="2.08" friendlyPos="1"/>
        <access lane="1286414025#2_0" pos="0.00" length="7.08" friendlyPos="1"/>
        <access lane="1286414028#1_0" pos="0.20" length="5.90" friendlyPos="1"/>
        <access lane="391707790#1_0" pos="19.93" length="10.95" friendlyPos="1"/>
        <access lane="79638493#1_0" pos="10.15" length="5.41" friendlyPos="1"/>
    </busStop>
    <busStop id="-25903355" name="Banco de España" lane="-442950301#0_0" startPos="995.21" endPos="1195.21" friendlyPos="true">
        <access lane="1286420525#2_0" pos="30.88" length="15.86" friendlyPos="1"/>
        <access lane="1286420527#3_0" pos="32.74" length="23.54" friendlyPos="1"/>
        <access lane="336635020#6_0" pos="13.71" length="32.20" friendlyPos="1"/>
        <access lane="336635029_0" pos="62.64" length="1.00" friendlyPos="1"/>
        <access lane="336635034#13_0" pos="33.08" length="31.66" friendlyPos="1"/>
    </busStop>
    <busStop id="-25906279" name="Chueca" lane="-695991673#0_0" startPos="396.49" endPos="596.49" friendlyPos="true">
        <access lane="4291307#0_0" pos="4.90" length="44.10" friendlyPos="1"/>
        <access lane="4291307#1_0" pos="25.22" length="24.13" friendlyPos="1"/>
        <access lane="4291307#2_0" pos="51.62" length="13.66" friendlyPos="1"/>
        <access lane="7972372#1_0" pos="46.96" length="46.72" friendlyPos="1"/>
        <access lane="7972372#2_0" pos="4.90" length="44.10" friendlyPos="1"/>
    </busStop>
    <busStop id="-25935011" name="San Bernardo" lane="-442950303_0" startPos="1635.98" endPos="1835.98" friendlyPos="true">
        <access lane="1240524430#0_0" pos="0.00" length="241.53" friendlyPos="1"/>
    </busStop>
    <busStop id="-26066629" name="Noviciado" lane="-442950303_0" startPos="2297.33" endPos="2497.33" friendlyPos="true">
        <access lane="-293712003#0_0" pos="19.17" length="202.30" friendlyPos="1"/>
        <access lane="-4308074#4_0" pos="0.00" length="46.94" friendlyPos="1"/>
        <access lane="1240524430#0_0" pos="505.93" length="12.38" friendlyPos="1"/>
        <access lane="293712003#0_0" pos="0.00" length="201.26" friendlyPos="1"/>
        <access lane="4308074#3_0" pos="180.86" length="39.14" friendlyPos="1"/>
    </busStop>
    <busStop id="-26068173" name="Santo Domingo" lane="-442950303_0" startPos="2700.63" endPos="2900.63" friendlyPos="true">
        <access lane="409114851#3_0" pos="1.10" length="59.55" friendlyPos="1"/>
        <access lane="409114851#4_0" pos="0.53" length="58.77" friendlyPos="1"/>
        <access lane="409114851#5_0" pos="37.38" length="5.23" friendlyPos="1"/>
        <access lane="409114852#1_0" pos="41.85" length="13.98" friendlyPos="1"/>
        <access lane="592885351_0" pos="0.00" length="10.92" friendlyPos="1"/>
    </busStop>
    <busStop id="-299515114" name="Alvarado" lane="-511288266#0_0" startPos="3501.07" endPos="3701.07" friendlyPos="true"/>
    <busStop id="-299644680" name="Estrecho" lane="-511288266#0_0" startPos="3995.91" endPos="4195.91" friendlyPos="true"/>
    <busStop id="-324376827" name="Quevedo" lane="-442950303_0" startPos="1332.47" endPos="1532.47" friendlyPos="true"/>
    <busStop id="-324391382" name="Ríos Rosas" lane="-511288266#0_0" startPos="2519.57" endPos="2719.57" friendlyPos="true"/>
    <busStop id="-324391956" name="Iglesia" lane="-511288266#0_0" startPos="1781.73" endPos="1981.73" friendlyPos="true"/>
    <busStop id="-4405988107" name="Sol" lane="-442950301#0_0" startPos="248.15" endPos="448.15" friendlyPos="true">
        <access lane="1169291962_0" pos="5.25" length="10.07" friendlyPos="1"/>
        <access lane="319338109_0" pos="6.48" length="2.61" friendlyPos="1"/>
        <access lane="549535248_0" pos="0.28" length="4.67" friendlyPos="1"/>
        <access lane="549535253#3_0" pos="9.46" length="9.58" friendlyPos="1"/>
        <access lane="549535253#4_0" pos="0.89" length="3.58" friendlyPos="1"/>
    </busStop>
    <busStop id="-4405988225" name="Príncipe Pío" lane="-442950334_0" startPos="713.20" endPos="913.20" friendlyPos="true">
        <access lane="119181067_0" pos="15.12" length="20.18" friendlyPos="1"/>
        <access lane="119181088_0" pos="13.06" length="37.06" friendlyPos="1"/>
        <access lane="71233319#2_0" pos="5.64" length="22.39" friendlyPos="1"/>
        <access lane="71233319#3_0" pos="9.57" length="5.16" friendlyPos="1"/>
        <access lane="71402049#0_0" pos="0.00" length="36.13" friendlyPos="1"/>
    </busStop>
    <busStop id="-4405991654" name="Ópera" lane="-442950303_0" startPos="3110.50" endPos="3310.50" friendlyPos="true">
        <access lane="1240524439_0" pos="28.45" length="3.10" friendlyPos="1"/>
        <access lane="1240524440_0" pos="0.00" length="7.01" friendlyPos="1"/>
        <access lane="320898239#0_0" pos="0.00" length="6.23" friendlyPos="1"/>
        <access lane="320898241_0" pos="1.20" length="1.34" friendlyPos="1"/>
        <access lane="866662396_0" pos="5.95" length="12.41" friendlyPos="1"/>
    </busStop>
    <busStop id="-5299216970" name="Valdecarros" lane="-548531500_0" startPos="55.17" endPos="255.17" friendlyPos="true"/>
    <busStop id="-5299216972" name="Las Suertes" lane="-548531500_0" startPos="767.39" endPos="967.39" friendlyPos="true"/>
    <busStop id="-5299216977" name="La Gavia" lane="-548531500_0" startPos="2077.28" endPos="2277.28" friendlyPos="true"/>
    <busStop id="-5299216982" name="Congosto" lane="-548531500_0" startPos="2758.72" endPos="2958.72" friendlyPos="true"/>
    <busStop id="-5299216985" name="Villa de Vallecas" lane="-548531500_0" startPos="3605.91" endPos="3805.91" friendlyPos="true"/>
    <busStop id="-5299216987" name="Sierra de Guadalupe" lane="-548531500_0" startPos="4094.10" endPos="4294.10" friendlyPos="true"/>
    <busStop id="-5299216997" name="Miguel Hernández" lane="-548531500_0" startPos="5586.22" endPos="5786.22" friendlyPos="true"/>
    <busStop id="-5299217000" name="Alto del Arenal" lane="-548531500_0" startPos="6131.86" endPos="6331.86" friendlyPos="true"/>
    <busStop id="-5299217006" name="Buenos Aires" lane="-548531500_0" startPos="6848.06" endPos="7048.06" friendlyPos="true"/>
    <busStop id="-5299217008" name="Portazgo" lane="-548531500_0" startPos="7339.67" endPos="7539.67" friendlyPos="true"/>
    <busStop id="-5299217010" name="Nueva Numancia" lane="-548531500_0" startPos="7914.41" endPos="8114.41" friendlyPos="true"/>
    <busStop id="-5299217011" name="Puente de Vallecas" lane="-548531500_0" startPos="8342.47" endPos="8542.47" friendlyPos="true"/>
    <busStop id="-5299217013" name="Pacífico" lane="-548531500_0" startPos="9096.01" endPos="9296.01" friendlyPos="true"/>
    <busStop id="-5299217017" name="Menéndez Pelayo" lane="-548531500_0" startPos="9588.29" endPos="9788.29" friendlyPos="true"/>
    <busStop id="-5299219122" name="Atocha" lane="-548531500_0" startPos="10288.44" endPos="10488.44" friendlyPos="true"/>
    <busStop id="-5299219127" name="Estación del Arte" lane="-548531500_0" startPos="10603.05" endPos="10803.05" friendlyPos="true">
        <access lane="262951801#5_0" pos="125.46" length="200.54" friendlyPos="1"/>
    </busStop>
    <busStop id="-5299219130" name="Antón Martín" lane="-548531500_0" startPos="11361.44" endPos="11561.44" friendlyPos="true">
        <access lane="-423232043_0" pos="0.00" length="14.86" friendlyPos="1"/>
        <access lane="319620192_0" pos="0.00" length="47.59" friendlyPos="1"/>
        <access lane="423232043_0" pos="27.07" length="12.91" friendlyPos="1"/>
        <access lane="4328795#2_0" pos="33.62" length="18.72" friendlyPos="1"/>
        <access lane="48345480#0_0" pos="5.84" length="1.20" friendlyPos="1"/>
    </busStop>
    <busStop id="-5299219185" name="Tirso de Molina" lane="-548531500_0" startPos="11799.49" endPos="11999.49" friendlyPos="true">
        <access lane="1109771619_0" pos="30.63" length="27.52" friendlyPos="1"/>
        <access lane="1176321083_0" pos="39.12" length="3.23" friendlyPos="1"/>
        <access lane="1176321084_0" pos="0.00" length="30.85" friendlyPos="1"/>
        <access lane="1176321086_0" pos="0.00" length="31.93" friendlyPos="1"/>
        <access lane="1176321087_0" pos="38.88" length="7.11" friendlyPos="1"/>
    </busStop>
    <busStop id="-5299219187" name="Sol" lane="-548531500_0" startPos="12472.12" endPos="12672.12" friendlyPos="true">
        <access lane="1000017580#3_0" pos="6.69" length="14.82" friendlyPos="1"/>
        <access lane="1000017580#4_0" pos="0.76" length="8.99" friendlyPos="1"/>
        <access lane="1169291963#1_0" pos="12.11" length="0.49" friendlyPos="1"/>
        <access lane="1285653608#0_0" pos="11.15" length="0.98" friendlyPos="1"/>
        <access lane="1285653608#1_0" pos="0.00" length="16.26" friendlyPos="1"/>
    </busStop>
    <busStop id="-5299219188" name="Gran Vía" lane="-548531500_0" startPos="12727.00" endPos="12927.00" friendlyPos="true">
        <access lane="334102282#9_0" pos="5.52" length="2.73" friendlyPos="1"/>
        <access lane="695993032#1_0" pos="0.00" length="6.34" friendlyPos="1"/>
        <access lane="695993045#1_0" pos="0.20" length="5.18" friendlyPos="1"/>
        <access lane="695994125#0_0" pos="0.82" length="1.98" friendlyPos="1"/>
        <access lane="695994634_0" pos="3.82" length="6.66" friendlyPos="1"/>
    </busStop>
    <busStop id="-5299219189" name="Tribunal" lane="-548531514#0_0" startPos="584.33" endPos="784.33" friendlyPos="true"/>
    <busStop id="-5299219190" name="Bilbao" lane="-548531514#0_0" startPos="1051.24" endPos="1251.24" friendlyPos="true"/>
    <busStop id="-5299219193" name="Iglesia" lane="-548531514#0_0" startPos="1780.38" endPos="1980.38" friendlyPos="true"/>
    <busStop id="-5299219194" name="Ríos Rosas" lane="-548531514#0_0" startPos="2517.85" endPos="2717.85" friendlyPos="true"/>
    <busStop id="-5299219195" name="Cuatro Caminos" lane="-548531514#0_0" startPos="3017.67" endPos="3217.67" friendlyPos="true"/>
    <busStop id="-5299219197" name="Alvarado" lane="-548531514#0_0" startPos="3500.32" endPos="3700.32" friendlyPos="true"/>
    <busStop id="-5299219209" name="Estrecho" lane="-548531514#0_0" startPos="3995.65" endPos="4195.65" friendlyPos="true"/>
    <busStop id="-5299314584" name="Tribunal" lane="-511288266#0_0" startPos="585.44" endPos="785.44" friendlyPos="true"/>
    <busStop id="-5299314586" name="Bilbao" lane="-511288266#0_0" startPos="1050.96" endPos="1250.96" friendlyPos="true"/>
    <busStop id="-5299314589" name="Cuatro Caminos" lane="-511288266#0_0" startPos="3019.53" endPos="3219.53" friendlyPos="true"/>
    <busStop id="-5303043466" name="Gran Vía" lane="-695991674#0_0" startPos="0.00" endPos="200.00" friendlyPos="true">
        <access lane="335819317#8_0" pos="1.30" length="0.60" friendlyPos="1"/>
        <access lane="695994637_0" pos="4.96" length="5.98" friendlyPos="1"/>
        <access lane="695994639#0_0" pos="5.51" length="1.56" friendlyPos="1"/>
        <access lane="865912093_0" pos="0.00" length="6.86" friendlyPos="1"/>
        <access lane="865912094_0" pos="1.60" length="6.95" friendlyPos="1"/>
    </busStop>
    <busStop id="-5303043472" name="Chueca" lane="-695991674#0_0" startPos="402.26" endPos="602.26" friendlyPos="true">
        <access lane="4291307#0_0" pos="11.50" length="42.89" friendlyPos="1"/>
        <access lane="4291307#1_0" pos="24.94" length="14.17" friendlyPos="1"/>
        <access lane="4291307#2_0" pos="52.29" length="23.59" friendlyPos="1"/>
        <access lane="7972372#2_0" pos="11.50" length="42.89" friendlyPos="1"/>
        <access lane="7972372#3_0" pos="0.00" length="44.70" friendlyPos="1"/>
    </busStop>
    <busStop id="-5303043473" name="Alonso Martínez" lane="-695991674#0_0" startPos="966.37" endPos="1166.37" friendlyPos="true"/>
    <busStop id="-5303127355" name="Alonso Martínez" lane="-695991673#0_0" startPos="961.96" endPos="1161.96" friendlyPos="true"/>
    <busStop id="-5303271992" name="Cuatro Caminos" lane="-442950303_0" startPos="0.00" endPos="200.00" friendlyPos="true"/>
    <busStop id="-5303271994" name="Canal" lane="-442950303_0" startPos="639.68" endPos="839.68" friendlyPos="true"/>
    <busStop id="-5303272075" name="Sol" lane="-548990702_0" startPos="382.97" endPos="582.97" friendlyPos="true">
        <access lane="1169291962_0" pos="5.25" length="10.69" friendlyPos="1"/>
        <access lane="319338109_0" pos="5.70" length="6.42" friendlyPos="1"/>
        <access lane="549535248_0" pos="0.00" length="6.75" friendlyPos="1"/>
        <access lane="549535253#3_0" pos="9.46" length="9.37" friendlyPos="1"/>
        <access lane="549535253#4_0" pos="1.21" length="0.38" friendlyPos="1"/>
    </busStop>
    <busStop id="-5303272231" name="Sevilla" lane="-548990702_0" startPos="679.56" endPos="879.56" friendlyPos="true">
        <access lane="1286414025#1_0" pos="10.41" length="2.91" friendlyPos="1"/>
        <access lane="1286414025#2_0" pos="0.00" length="6.21" friendlyPos="1"/>
        <access lane="1286414026#1_0" pos="16.19" length="8.22" friendlyPos="1"/>
        <access lane="1286414028#1_0" pos="0.20" length="2.14" friendlyPos="1"/>
        <access lane="79638493#1_0" pos="10.85" length="9.69" friendlyPos="1"/>
    </busStop>
    <busStop id="-5303272236" name="Banco de España" lane="-548990702_0" startPos="1130.31" endPos="1330.31" friendlyPos="true">
        <access lane="1286420525#2_0" pos="30.58" length="20.25" friendlyPos="1"/>
        <access lane="1286420527#3_0" pos="32.43" length="19.16" friendlyPos="1"/>
        <access lane="1286420527#6_0" pos="82.16" length="34.75" friendlyPos="1"/>
        <access lane="336635029_0" pos="62.34" length="5.39" friendlyPos="1"/>
        <access lane="336635034#13_0" pos="32.72" length="27.28" friendlyPos="1"/>
    </busStop>
    <busStop id="-5304749213" name="Ópera" lane="549151323_0" startPos="0.00" endPos="124.53" friendlyPos="true">
        <access lane="-31053377#1_0" pos="27.44" length="10.93" friendlyPos="1"/>
        <access lane="-7726325_0" pos="0.00" length="23.10" friendlyPos="1"/>
        <access lane="31053377#1_0" pos="8.49" length="2.23" friendlyPos="1"/>
        <access lane="345305595#10_0" pos="25.95" length="3.47" friendlyPos="1"/>
        <access lane="7726325_0" pos="43.17" length="15.77" friendlyPos="1"/>
    </busStop>
    <busStop id="-5305486978" name="Príncipe Pío" lane="-1054025305_0" startPos="16.05" endPos="216.05" friendlyPos="true">
        <access lane="1240317913#0_0" pos="19.93" length="22.80" friendlyPos="1"/>
        <access lane="1240317913#1_0" pos="0.00" length="36.45" friendlyPos="1"/>
        <access lane="1252080880_0" pos="0.00" length="41.25" friendlyPos="1"/>
        <access lane="1252080881_0" pos="13.31" length="23.80" friendlyPos="1"/>
        <access lane="1252080884#1_0" pos="12.61" length="33.74" friendlyPos="1"/>
    </busStop>
    <busStop id="-5970506955" name="Gran Vía - Hortaleza" lane="-32597088_0" startPos="0.00" endPos="15.00" friendlyPos="true" lines="002">
        <access lane="335825755#2_0" pos="116.67" length="13.46" friendlyPos="1"/>
        <access lane="335825755#3_0" pos="0.00" length="36.16" friendlyPos="1"/>
        <access lane="336633763_0" pos="0.00" length="39.65" friendlyPos="1"/>
        <access lane="865912095#1_0" pos="110.58" length="12.12" friendlyPos="1"/>
        <access lane="865912095#2_0" pos="0.00" length="37.60" friendlyPos="1"/>
    </busStop>
    <busStop id="-8423356513" lane="-82567675#2_0" startPos="9.06" endPos="24.06" friendlyPos="true" lines="26 32 6">
        <access lane="1275083958#0_0" pos="84.18" length="36.69" friendlyPos="1"/>
        <access lane="148898247#1_0" pos="25.24" length="33.34" friendlyPos="1"/>
        <access lane="320668248_0" pos="6.55" length="37.39" friendlyPos="1"/>
        <access lane="320668249_0" pos="19.92" length="18.50" friendlyPos="1"/>
        <access lane="7972551#3_0" pos="36.66" length="31.46" friendlyPos="1"/>
    </busStop>
    <busStop id="-8473691223" lane="-31000487_1" startPos="11.05" endPos="26.05" friendlyPos="true" lines="C1 41"/>
    <busStop id="-9727929637" name="Príncipe Pío" lane="-119181155_0" startPos="0.00" endPos="200.00" friendlyPos="true">
        <access lane="1279075084_0" pos="0.00" length="23.09" friendlyPos="1"/>
        <access lane="1279075085_0" pos="0.00" length="19.66" friendlyPos="1"/>
        <access lane="1279075086#0_0" pos="0.00" length="20.53" friendlyPos="1"/>
        <access lane="1279075088#1_0" pos="6.16" length="22.32" friendlyPos="1"/>
        <access lane="1279075088#2_0" pos="0.00" length="23.09" friendlyPos="1"/>
    </busStop>
    <busStop id="-9727929638" name="Príncipe Pío" lane="-119181131_0" startPos="0.00" endPos="200.00" friendlyPos="true">
        <access lane="1279075085_0" pos="0.00" length="19.80" friendlyPos="1"/>
        <access lane="1279075086#0_0" pos="0.00" length="18.99" friendlyPos="1"/>
        <access lane="1279075087_0" pos="0.00" length="21.03" friendlyPos="1"/>
        <access lane="1279075088#2_0" pos="0.20" length="22.36" friendlyPos="1"/>
        <access lane="1279075088#3_0" pos="0.16" length="21.73" friendlyPos="1"/>
    </busStop>
    <busStop id="1152699021" name="Sol" lane="1037434519_0" startPos="129.31" endPos="329.31" friendlyPos="true" lines="C-3 R-1 C-4">
        <access lane="1000016480#3_0" pos="31.93" length="33.95" friendlyPos="1"/>
        <access lane="1000017580#7_0" pos="10.39" length="27.56" friendlyPos="1"/>
        <access lane="554359459_0" pos="20.79" length="30.91" friendlyPos="1"/>
        <access lane="5930472#0_0" pos="3.03" length="30.18" friendlyPos="1"/>
        <access lane="687458372#0_0" pos="0.00" length="36.57" friendlyPos="1"/>
    </busStop>
    <busStop id="1437056478" lane="7732075_1" startPos="37.86" endPos="52.86" friendlyPos="true" lines="18 23"/>
    <busStop id="1439703616" name="Jardines de Sabatini" lane="4308590#3_1" startPos="27.49" endPos="42.49" friendlyPos="true" lines="25 39"/>
    <busStop id="1493565877" name="Príncipe Pío" lane="119181079#1_0" startPos="169.96" endPos="369.96" friendlyPos="true">
        <access lane="1279075084_0" pos="0.00" length="21.03" friendlyPos="1"/>
        <access lane="1279075085_0" pos="0.00" length="22.70" friendlyPos="1"/>
        <access lane="1279075086#0_0" pos="0.00" length="24.22" friendlyPos="1"/>
        <access lane="1279075088#0_0" pos="4.72" length="25.41" friendlyPos="1"/>
        <access lane="1279075088#1_0" pos="1.98" length="23.16" friendlyPos="1"/>
    </busStop>
    <busStop id="1493565878" name="Príncipe Pío" lane="156650822_0" startPos="278.46" endPos="478.46" friendlyPos="true">
        <access lane="1279075085_0" pos="0.00" length="22.30" friendlyPos="1"/>
        <access lane="1279075086#0_0" pos="0.00" length="20.77" friendlyPos="1"/>
        <access lane="1279075087_0" pos="0.00" length="18.66" friendlyPos="1"/>
        <access lane="1279075088#3_0" pos="4.11" length="21.40" friendlyPos="1"/>
        <access lane="1279075088#4_0" pos="2.46" length="21.33" friendlyPos="1"/>
    </busStop>
    <busStop id="1493565879" name="Príncipe Pío" lane="571079929_0" startPos="787.52" endPos="987.52" friendlyPos="true">
        <access lane="1279075086#0_0" pos="0.00" length="30.11" friendlyPos="1"/>
        <access lane="1279075087_0" pos="0.00" length="19.64" friendlyPos="1"/>
        <access lane="1279075088#3_0" pos="4.31" length="24.37" friendlyPos="1"/>
        <access lane="1279075088#4_0" pos="2.46" length="18.04" friendlyPos="1"/>
        <access lane="344003635_0" pos="89.94" length="28.63" friendlyPos="1"/>
    </busStop>
    <busStop id="1493715148" lane="7732078_0" startPos="7.23" endPos="22.23" friendlyPos="true" lines="32 65 6"/>
    <busStop id="21722690" name="Lago" lane="1054025299_0" startPos="0.00" endPos="200.00" friendlyPos="true"/>
    <busStop id="21759678" name="Sol" lane="443618649_0" startPos="980.82" endPos="1180.82" friendlyPos="true" lines="L3">
        <access lane="1169291963#0_0" pos="51.44" length="22.82" friendlyPos="1"/>
        <access lane="549535251#1_0" pos="17.30" length="1.43" friendlyPos="1"/>
        <access lane="549535251#2_0" pos="0.00" length="21.22" friendlyPos="1"/>
        <access lane="549535253#1_0" pos="10.70" length="18.44" friendlyPos="1"/>
        <access lane="549535253#2_0" pos="0.03" length="16.95" friendlyPos="1"/>
    </busStop>
    <busStop id="21759690" name="La Latina" lane="695991673#2_0" startPos="1484.48" endPos="1684.48" friendlyPos="true">
        <access lane="-398751337#2_0" pos="36.33" length="8.71" friendlyPos="1"/>
        <access lane="319636961_0" pos="6.83" length="25.77" friendlyPos="1"/>
        <access lane="398751337#1_0" pos="42.34" length="5.39" friendlyPos="1"/>
        <access lane="4328605#0_0" pos="56.53" length="56.37" friendlyPos="1"/>
        <access lane="4328605#1_0" pos="0.00" length="58.54" friendlyPos="1"/>
    </busStop>
    <busStop id="21956103" name="Lavapiés" lane="443618649_0" startPos="1973.38" endPos="2173.38" friendlyPos="true" lines="L3">
        <access lane="-4350172#0_0" pos="348.30" length="127.57" friendlyPos="1"/>
        <access lane="355153823#0_0" pos="0.00" length="91.86" friendlyPos="1"/>
        <access lane="4328770#2_0" pos="274.41" length="96.17" friendlyPos="1"/>
        <access lane="4350172#0_0" pos="124.11" length="118.87" friendlyPos="1"/>
        <access lane="7972698#4_0" pos="88.95" length="329.50" friendlyPos="1"/>
    </busStop>
    <busStop id="21964104" name="Callao" lane="443618649_0" startPos="549.57" endPos="749.57" friendlyPos="true" lines="L3">
        <access lane="202214510#6_0" pos="0.72" length="22.52" friendlyPos="1"/>
        <access lane="320895852_0" pos="0.00" length="20.01" friendlyPos="1"/>
        <access lane="320895859_0" pos="1.48" length="18.54" friendlyPos="1"/>
        <access lane="332069618#1_0" pos="0.00" length="22.68" friendlyPos="1"/>
        <access lane="380472819#4_0" pos="18.33" length="22.19" friendlyPos="1"/>
    </busStop>
    <busStop id="21968139" lane="813598084_0" startPos="41.00" endPos="56.00" friendlyPos="true" lines="15 5 N25">
        <access lane="1288890364#0_0" pos="8.37" length="11.14" friendlyPos="1"/>
        <access lane="1289077475#0_0" pos="93.55" length="7.61" friendlyPos="1"/>
        <access lane="1289077475#1_0" pos="42.24" length="23.12" friendlyPos="1"/>
        <access lane="1289077481_0" pos="0.00" length="23.30" friendlyPos="1"/>
        <access lane="391707139#0_0" pos="0.00" length="22.62" friendlyPos="1"/>
    </busStop>
    <busStop id="21990715" name="Tribunal" lane="1054025299_0" startPos="3278.78" endPos="3478.78" friendlyPos="true"/>
    <busStop id="22032372" name="Gran Vía" lane="695991675_0" startPos="1878.93" endPos="2078.93" friendlyPos="true">
        <access lane="335819317#8_0" pos="1.24" length="7.71" friendlyPos="1"/>
        <access lane="695994637_0" pos="1.51" length="8.32" friendlyPos="1"/>
        <access lane="695994638_0" pos="0.22" length="8.75" friendlyPos="1"/>
        <access lane="695994639#0_0" pos="7.11" length="8.25" friendlyPos="1"/>
        <access lane="695994641#0_0" pos="1.07" length="6.79" friendlyPos="1"/>
    </busStop>
    <busStop id="2472773304" lane="554359457_0" startPos="0.00" endPos="15.00" friendlyPos="true" lines="133">
        <access lane="409114851#3_0" pos="1.10" length="62.13" friendlyPos="1"/>
        <access lane="409114851#4_0" pos="2.59" length="60.88" friendlyPos="1"/>
        <access lane="409114851#5_0" pos="37.94" length="8.86" friendlyPos="1"/>
        <access lane="409114852#1_0" pos="41.27" length="10.36" friendlyPos="1"/>
        <access lane="592885351_0" pos="0.00" length="7.60" friendlyPos="1"/>
    </busStop>
    <busStop id="2480979094" lane="4346298#0_0" startPos="0.00" endPos="0.20" friendlyPos="true" lines="N20 N21">
        <access lane="240352173_0" pos="0.00" length="0.00" friendlyPos="1"/>
        <access lane="391709028#1_0" pos="0.29" length="3.63" friendlyPos="1"/>
        <access lane="431767937#1_0" pos="0.20" length="5.08" friendlyPos="1"/>
        <access lane="431767937#2_0" pos="0.00" length="5.07" friendlyPos="1"/>
        <access lane="909140490_0" pos="0.54" length="0.00" friendlyPos="1"/>
    </busStop>
    <busStop id="2480979095" lane="131431688#0_0" startPos="6.31" endPos="21.31" friendlyPos="true">
        <access lane="391709028#0_0" pos="19.84" length="26.58" friendlyPos="1"/>
        <access lane="391709028#1_0" pos="48.87" length="13.80" friendlyPos="1"/>
        <access lane="431767936#0_0" pos="17.26" length="20.89" friendlyPos="1"/>
        <access lane="431767936#1_0" pos="0.00" length="21.13" friendlyPos="1"/>
        <access lane="431767937#0_0" pos="0.00" length="23.39" friendlyPos="1"/>
    </busStop>
    <busStop id="2506473215" lane="302579018#0_0" startPos="0.00" endPos="14.90" friendlyPos="true" lines="51 52 53"/>
    <busStop id="255881693" name="Rubén Darío" lane="695991675_0" startPos="73.47" endPos="273.47" friendlyPos="true"/>
    <busStop id="25903354" name="Sevilla" lane="442950300_0" startPos="519.29" endPos="719.29" friendlyPos="true">
        <access lane="1286414025#1_0" pos="10.41" length="2.08" friendlyPos="1"/>
        <access lane="1286414025#2_0" pos="0.00" length="7.08" friendlyPos="1"/>
        <access lane="1286414028#1_0" pos="0.20" length="5.90" friendlyPos="1"/>
        <access lane="391707790#1_0" pos="19.93" length="10.95" friendlyPos="1"/>
        <access lane="79638493#1_0" pos="10.15" length="5.41" friendlyPos="1"/>
    </busStop>
    <busStop id="25903355" name="Banco de España" lane="442950300_0" startPos="68.54" endPos="268.54" friendlyPos="true">
        <access lane="1286420525#2_0" pos="30.88" length="15.86" friendlyPos="1"/>
        <access lane="1286420527#3_0" pos="32.74" length="23.54" friendlyPos="1"/>
        <access lane="336635020#6_0" pos="13.71" length="32.20" friendlyPos="1"/>
        <access lane="336635029_0" pos="62.64" length="1.00" friendlyPos="1"/>
        <access lane="336635034#13_0" pos="33.08" length="31.66" friendlyPos="1"/>
    </busStop>
    <busStop id="25906010" name="Príncipe Pío" lane="1054025299_0" startPos="1541.82" endPos="1741.82" friendlyPos="true">
        <access lane="119181120#3_0" pos="49.21" length="29.45" friendlyPos="1"/>