<?xml version="1.0" encoding="UTF-8"?>

<!-- generated on 2024-07-01 13:02:59.086257 by osmWebWizard.py v1_19_0+0000-baa66a0f364
<configuration>
    <net-file value="C:\Users\Jaime\Sumo\2024-07-01-13-02-42\osm.net.xml.gz"/>
    <output-trip-file value="C:\Users\Jaime\Sumo\2024-07-01-13-02-42\osm.passenger.trips.xml"/>
    <route-file value="C:\Users\Jaime\Sumo\2024-07-01-13-02-42\osm.passenger.rou.xml"/>
    <prefix value="veh"/>
    <trip-attributes value="departLane=&quot;best&quot;"/>
    <fringe-start-attributes value="departSpeed=&quot;max&quot;"/>
    <vehicle-class value="passenger"/>
    <lanes value="True"/>
    <fringe-factor value="5"/>
    <allow-fringe.min-length value="1000.0"/>
    <via-edge-types value="highway.motorway,highway.motorway_link,highway.trunk_link,highway.primary_link,highway.secondary_link,highway.tertiary_link"/>
    <min-distance value="300.0"/>
    <min-distance.fringe value="10.0"/>
    <remove-loops value="True"/>
    <validate value="True"/>
    <end value="4000.0"/>
    <insertion-density value="12.0"/>
</configuration>
-->

<!-- generated on 2024-07-01 13:02:58 by Eclipse SUMO duarouter Version 1.19.0
<configuration xmlns:xsi="http://www.w3.org/2001/XMLSchema-instance" xsi:noNamespaceSchemaLocation="http://sumo.dlr.de/xsd/duarouterConfiguration.xsd">

    <input>
        <net-file value="C:\Users\Jaime\Sumo\2024-07-01-13-02-42\osm.net.xml.gz"/>
        <route-files value="C:\Users\Jaime\Sumo\2024-07-01-13-02-42\osm.passenger.trips.xml"/>
    </input>

    <output>
        <output-file value="C:\Users\Jaime\Sumo\2024-07-01-13-02-42\osm.passenger.trips.xml.tmp"/>
        <alternatives-output value="NUL"/>
        <write-trips value="true"/>
    </output>

    <processing>
        <remove-loops value="true"/>
    </processing>

    <time>
        <begin value="0.0"/>
        <end value="4000.0"/>
    </time>

    <report>
        <no-warnings value="true"/>
        <ignore-errors value="true"/>
        <no-step-log value="true"/>
    </report>

</configuration>
-->

<routes xmlns:xsi="http://www.w3.org/2001/XMLSchema-instance" xsi:noNamespaceSchemaLocation="http://sumo.dlr.de/xsd/routes_file.xsd">
    <vType id="veh_passenger" vClass="passenger"/>
    <trip id="veh0" type="veh_passenger" depart="0.00" departLane="best" from="360498020#1" to="-232249770"/>
    <trip id="veh1" type="veh_passenger" depart="2.89" departLane="best" from="23161423#0" to="1190835109"/>
    <trip id="veh2" type="veh_passenger" depart="5.78" departLane="best" departSpeed="max" from="373876679" to="373372515#2"/>
    <trip id="veh3" type="veh_passenger" depart="8.68" departLane="best" from="98885187#2" to="-345027472"/>
    <trip id="veh4" type="veh_passenger" depart="11.57" departLane="best" from="344740304#0" to="-236549640#0"/>
    <trip id="veh5" type="veh_passenger" depart="14.46" departLane="best" from="1204000540#0" to="358055204#0"/>
    <trip id="veh6" type="veh_passenger" depart="17.35" departLane="best" from="-232249779#2" to="1181944626#1"/>
    <trip id="veh7" type="veh_passenger" depart="20.24" departLane="best" departSpeed="max" from="370563772" to="359284805#2"/>
    <trip id="veh8" type="veh_passenger" depart="23.13" departLane="best" from="98885173" to="35974653#1"/>
    <trip id="veh9" type="veh_passenger" depart="26.03" departLane="best" from="534660455" to="-1189807227"/>
    <trip id="veh10" type="veh_passenger" depart="28.92" departLane="best" from="45409811#4" to="373404522#1"/>
    <trip id="veh11" type="veh_passenger" depart="31.81" departLane="best" from="99014164#8" to="-232249779#0"/>
    <trip id="veh12" type="veh_passenger" depart="34.70" departLane="best" from="373377063#1" to="-345027504"/>
    <trip id="veh13" type="veh_passenger" depart="37.59" departLane="best" from="61650345#0" to="360340122#0"/>
    <trip id="veh14" type="veh_passenger" depart="40.48" departLane="best" from="45409811#6" to="373871893#1"/>
    <trip id="veh15" type="veh_passenger" depart="43.38" departLane="best" from="359284802#1" to="99017522#1"/>
    <trip id="veh16" type="veh_passenger" depart="46.27" departLane="best" from="343432613#2" to="35931169#1"/>
    <trip id="veh17" type="veh_passenger" depart="49.16" departLane="best" from="570006797#2" to="360475979#1"/>
    <trip id="veh20" type="veh_passenger" depart="57.83" departLane="best" from="184129471#4" to="205029946#0"/>
    <trip id="veh21" type="veh_passenger" depart="60.73" departLane="best" from="-35963999#1" to="1202270866#4"/>
    <trip id="veh22" type="veh_passenger" depart="63.62" departLane="best" from="-373871183#0" to="191099602"/>
    <trip id="veh23" type="veh_passenger" depart="66.51" departLane="best" from="360478614" to="282232823#0"/>
    <trip id="veh24" type="veh_passenger" depart="69.40" departLane="best" from="373370639" to="1184835531#7"/>
    <trip id="veh25" type="veh_passenger" depart="72.29" departLane="best" from="224595855" to="99009671#2"/>
    <trip id="veh26" type="veh_passenger" depart="75.18" departLane="best" from="369466788#5" to="256535418#0"/>
    <trip id="veh27" type="veh_passenger" depart="78.08" departLane="best" from="1183634186#4" to="373871886#2"/>
    <trip id="veh28" type="veh_passenger" depart="80.97" departLane="best" from="110058627#0" to="297041685#4"/>
    <trip id="veh29" type="veh_passenger" depart="83.86" departLane="best" from="99190326#0" to="369466788#0"/>
    <trip id="veh30" type="veh_passenger" depart="86.75" departLane="best" from="359353535#1" to="373389045"/>
    <trip id="veh31" type="veh_passenger" depart="89.64" departLane="best" from="58610506#4" to="374530223#1"/>
    <trip id="veh32" type="veh_passenger" depart="92.53" departLane="best" from="185127034#1" to="-238119519#0"/>
    <trip id="veh33" type="veh_passenger" depart="95.43" departLane="best" from="233192062" to="190525290#0"/>
    <trip id="veh34" type="veh_passenger" depart="98.32" departLane="best" from="1202270866#0" to="99009671#7"/>
    <trip id="veh35" type="veh_passenger" depart="101.21" departLane="best" departSpeed="max" from="99000839#0" to="-344983313#0"/>
    <trip id="veh36" type="veh_passenger" depart="104.10" departLane="best" from="35964156#0" to="-98885180#1"/>
    <trip id="veh37" type="veh_passenger" depart="106.99" departLane="best" from="343435990#2" to="1186605084#0"/>
    <trip id="veh38" type="veh_passenger" depart="109.88" departLane="best" from="99712529#4" to="358086113#2"/>
    <trip id="veh39" type="veh_passenger" depart="112.78" departLane="best" departSpeed="max" from="-53631812#2" to="360475999#2"/>
    <trip id="veh40" type="veh_passenger" depart="115.67" departLane="best" from="375043048#0" to="343435994#2"/>
    <trip id="veh41" type="veh_passenger" depart="118.56" departLane="best" from="345027470#4" to="297041688"/>
    <trip id="veh42" type="veh_passenger" depart="121.45" departLane="best" from="99712525#1" to="358844251#8"/>
    <trip id="veh43" type="veh_passenger" depart="124.34" departLane="best" departSpeed="max" from="99017517#0" to="61650588#0"/>
    <trip id="veh44" type="veh_passenger" depart="127.23" departLane="best" from="-190426007#1" to="373871160#3"/>
    <trip id="veh45" type="veh_passenger" depart="130.13" departLane="best" from="-373372515#0" to="35915952#2"/>
    <trip id="veh46" type="veh_passenger" depart="133.02" departLane="best" departSpeed="max" from="-54179554" to="344515354#1"/>
    <trip id="veh47" type="veh_passenger" depart="135.91" departLane="best" from="345027461#5" to="99014164#4"/>
    <trip id="veh48" type="veh_passenger" depart="138.80" departLane="best" from="358055211#2" to="-99017514#0"/>
    <trip id="veh49" type="veh_passenger" depart="141.69" departLane="best" from="99000833#1" to="77609169#1"/>
    <trip id="veh50" type="veh_passenger" depart="144.58" departLane="best" from="232245077#3" to="369466779#1"/>
    <trip id="veh51" type="veh_passenger" depart="147.48" departLane="best" from="360464237" to="-98726589#0"/>
    <trip id="veh52" type="veh_passenger" depart="150.37" departLane="best" from="374410129" to="35916356#1"/>
    <trip id="veh53" type="veh_passenger" depart="153.26" departLane="best" from="374527983#1" to="358844254#0"/>
    <trip id="veh54" type="veh_passenger" depart="156.15" departLane="best" from="1053956304#0" to="232245077#1"/>
    <trip id="veh55" type="veh_passenger" depart="159.04" departLane="best" from="232245092#1" to="99006810#3"/>
    <trip id="veh56" type="veh_passenger" depart="161.93" departLane="best" from="896209495#0" to="570001637"/>
    <trip id="veh58" type="veh_passenger" depart="167.72" departLane="best" from="-373370630#0" to="345027499#0"/>
    <trip id="veh59" type="veh_passenger" depart="170.61" departLane="best" from="-345027498" to="374410134#0"/>
    <trip id="veh60" type="veh_passenger" depart="173.50" departLane="best" from="345027499#1" to="35930695"/>
    <trip id="veh61" type="veh_passenger" depart="176.39" departLane="best" from="205029946#2" to="77609171"/>
    <trip id="veh62" type="veh_passenger" depart="179.28" departLane="best" from="344740306#0" to="1185084123"/>
    <trip id="veh63" type="veh_passenger" depart="182.18" departLane="best" from="359284805#3" to="373876674"/>
    <trip id="veh64" type="veh_passenger" depart="185.07" departLane="best" from="1188810219#0" to="1204000535#0"/>
    <trip id="veh65" type="veh_passenger" depart="187.96" departLane="best" departSpeed="max" from="99712524" to="372798462#0"/>
    <trip id="veh66" type="veh_passenger" depart="190.85" departLane="best" from="-344983300" to="358303732#0"/>
    <trip id="veh67" type="veh_passenger" depart="193.74" departLane="best" from="570486848#1" to="1190835335#1"/>
    <trip id="veh68" type="veh_passenger" depart="196.63" departLane="best" from="259218549#1" to="35974621#0"/>
    <trip id="veh69" type="veh_passenger" depart="199.53" departLane="best" from="185127039#1" to="1186605084#0"/>
    <trip id="veh70" type="veh_passenger" depart="202.42" departLane="best" from="-35773484#1" to="360478618#0"/>
    <trip id="veh71" type="veh_passenger" depart="205.31" departLane="best" from="185127034#1" to="98983443#1"/>
    <trip id="veh72" type="veh_passenger" depart="208.20" departLane="best" departSpeed="max" from="77609167#0" to="-344983299#0"/>
    <trip id="veh73" type="veh_passenger" depart="211.09" departLane="best" from="190524657#0" to="373369395#1"/>
    <trip id="veh74" type="veh_passenger" depart="213.98" departLane="best" from="1204000535#0" to="-373876679"/>
    <trip id="veh75" type="veh_passenger" depart="216.88" departLane="best" from="99009671#2" to="359507076#5"/>
    <trip id="veh76" type="veh_passenger" depart="219.77" departLane="best" departSpeed="max" from="345027493" to="374541214#1"/>
    <trip id="veh77" type="veh_passenger" depart="222.66" departLane="best" from="456403897#0" to="1031928919#0"/>
    <trip id="veh78" type="veh_passenger" depart="225.55" departLane="best" from="-373871160#2" to="343446214#0"/>
    <trip id="veh79" type="veh_passenger" depart="228.44" departLane="best" from="344740306#2" to="-344999463#1"/>
    <trip id="veh80" type="veh_passenger" depart="231.33" departLane="best" from="373871165#8" to="373372504#0"/>
    <trip id="veh81" type="veh_passenger" depart="234.23" departLane="best" from="99017558#3" to="-35782220"/>
    <trip id="veh82" type="veh_passenger" depart="237.12" departLane="best" from="343435994#4" to="233190036"/>
    <trip id="veh83" type="veh_passenger" depart="240.01" departLane="best" from="77609182#0" to="184109464"/>
    <trip id="veh84" type="veh_passenger" depart="242.90" departLane="best" departSpeed="max" from="1186605083#0" to="-344963903#6"/>
    <trip id="veh85" type="veh_passenger" depart="245.79" departLane="best" from="344740304#0" to="191099604#0"/>
    <trip id="veh86" type="veh_passenger" depart="248.68" departLane="best" departSpeed="max" from="190800508#0" to="99000862#1"/>
    <trip id="veh87" type="veh_passenger" depart="251.58" departLane="best" departSpeed="max" from="344983314" to="61650633#0"/>
    <trip id="veh88" type="veh_passenger" depart="254.47" departLane="best" departSpeed="max" from="35931470#0" to="-343435951"/>
    <trip id="veh90" type="veh_passenger" depart="260.25" departLane="best" from="99017511#1" to="99002456#0"/>
    <trip id="veh91" type="veh_passenger" depart="263.14" departLane="best" from="61650346" to="-99000863"/>
    <trip id="veh92" type="veh_passenger" depart="266.04" departLane="best" from="349882515#3" to="1185084461#0"/>
    <trip id="veh93" type="veh_passenger" depart="268.93" departLane="best" from="343435994#0" to="343436009"/>
    <trip id="veh94" type="veh_passenger" depart="271.82" departLane="best" from="343432613#3" to="282232823#0"/>
    <trip id="veh95" type="veh_passenger" depart="274.71" departLane="best" from="345027465#0" to="343435997"/>
    <trip id="veh96" type="veh_passenger" depart="277.60" departLane="best" from="99014164#8" to="99712528"/>
    <trip id="veh97" type="veh_passenger" depart="280.49" departLane="best" from="359353526#2" to="373868752#2"/>
    <trip id="veh98" type="veh_passenger" depart="283.39" departLane="best" from="99017536#1" to="23051262#0"/>
    <trip id="veh99" type="veh_passenger" depart="286.28" departLane="best" from="99017511#0" to="35963240#0"/>
    <trip id="veh100" type="veh_passenger" depart="289.17" departLane="best" departSpeed="max" from="359284811" to="373879411#1"/>
    <trip id="veh101" type="veh_passenger" depart="292.06" departLane="best" from="-344983312#3" to="35963799#2"/>
    <trip id="veh102" type="veh_passenger" depart="294.95" departLane="best" from="358086113#2" to="58610506#3"/>
    <trip id="veh104" type="veh_passenger" depart="300.74" departLane="best" from="35963999#2" to="-99017536#0"/>
    <trip id="veh105" type="veh_passenger" depart="303.63" departLane="best" from="360339432" to="373372505#6"/>
    <trip id="veh106" type="veh_passenger" depart="306.52" departLane="best" from="190429172#2" to="-373377063#1"/>
    <trip id="veh107" type="veh_passenger" depart="309.41" departLane="best" from="98885180#0" to="149032234#0"/>
    <trip id="veh108" type="veh_passenger" depart="312.30" departLane="best" from="360339432" to="360475979#2"/>
    <trip id="veh109" type="veh_passenger" depart="315.19" departLane="best" from="344740297#0" to="35963799#1"/>
    <trip id="veh110" type="veh_passenger" depart="318.09" departLane="best" from="358844252" to="99009671#1"/>
    <trip id="veh111" type="veh_passenger" depart="320.98" departLane="best" from="190524657#2" to="337834809#4"/>
    <trip id="veh112" type="veh_passenger" depart="323.87" departLane="best" from="373368139#2" to="23161419#2"/>
    <trip id="veh114" type="veh_passenger" depart="329.65" departLane="best" departSpeed="max" from="-35915952#2" to="-344983312#3"/>
    <trip id="veh115" type="veh_passenger" depart="332.54" departLane="best" departSpeed="max" from="-35915952#2" to="1185084125#1"/>
    <trip id="veh116" type="veh_passenger" depart="335.44" departLane="best" from="205029946#2" to="99009671#0"/>
    <trip id="veh117" type="veh_passenger" depart="338.33" departLane="best" from="938129117#0" to="77862130"/>
    <trip id="veh119" type="veh_passenger" depart="344.11" departLane="best" from="570486848#2" to="373404533#0"/>
    <trip id="veh120" type="veh_passenger" depart="347.00" departLane="best" from="360473083#0" to="99190342#0"/>
    <trip id="veh121" type="veh_passenger" depart="349.89" departLane="best" from="149032233" to="-1189807227"/>
    <trip id="veh122" type="veh_passenger" depart="352.79" departLane="best" from="53590474#1" to="23161419#1"/>
    <trip id="veh123" type="veh_passenger" depart="355.68" departLane="best" from="373214910" to="99009671#4"/>
    <trip id="veh124" type="veh_passenger" depart="358.57" departLane="best" from="98885187#3" to="373372505#4"/>
    <trip id="veh125" type="veh_passenger" depart="361.46" departLane="best" from="-374530223#0" to="35931026#0"/>
    <trip id="veh126" type="veh_passenger" depart="364.35" departLane="best" from="23161419#0" to="360340122#1"/>
    <trip id="veh127" type="veh_passenger" depart="367.24" departLane="best" from="373868698#2" to="1183634186#5"/>
    <trip id="veh128" type="veh_passenger" depart="370.14" departLane="best" from="360478610" to="190429172#3"/>
    <trip id="veh129" type="veh_passenger" depart="373.03" departLane="best" from="357759046#0" to="98983443#1"/>
    <trip id="veh130" type="veh_passenger" depart="375.92" departLane="best" from="58611076#2" to="-345027493"/>
    <trip id="veh131" type="veh_passenger" depart="378.81" departLane="best" from="344740306#2" to="190824293"/>
    <trip id="veh132" type="veh_passenger" depart="381.70" departLane="best" from="-1184847043" to="374416163"/>
    <trip id="veh133" type="veh_passenger" depart="384.59" departLane="best" from="360478618#1" to="190429172#0"/>
    <trip id="veh134" type="veh_passenger" depart="387.49" departLane="best" from="373879391#4" to="35930695"/>
    <trip id="veh135" type="veh_passenger" depart="390.38" departLane="best" departSpeed="max" from="344963903#0" to="-184129471#2"/>
    <trip id="veh136" type="veh_passenger" depart="393.27" departLane="best" from="-359507643#0" to="345027490#0"/>
    <trip id="veh137" type="veh_passenger" depart="396.16" departLane="best" from="1184835531#1" to="359284805#3"/>
    <trip id="veh138" type="veh_passenger" depart="399.05" departLane="best" from="570486851" to="35963788#3"/>
    <trip id="veh139" type="veh_passenger" depart="401.94" departLane="best" from="-99014778" to="-373871178#0"/>
    <trip id="veh140" type="veh_passenger" depart="404.84" departLane="best" departSpeed="max" from="232249770" to="98885187#2"/>
    <trip id="veh141" type="veh_passenger" depart="407.73" departLane="best" from="375043051#2" to="61650588#0"/>
    <trip id="veh142" type="veh_passenger" depart="410.62" departLane="best" from="98983443#2" to="1184835531#8"/>
    <trip id="veh143" type="veh_passenger" depart="413.51" departLane="best" departSpeed="max" from="190800508#0" to="-35953773#3"/>
    <trip id="veh145" type="veh_passenger" depart="419.29" departLane="best" from="99017525#1" to="99006810#3"/>
    <trip id="veh146" type="veh_passenger" depart="422.19" departLane="best" from="-77725628#0" to="99017526"/>
    <trip id="veh148" type="veh_passenger" depart="427.97" departLane="best" from="-232249773#1" to="373879392#1"/>
    <trip id="veh149" type="veh_passenger" depart="430.86" departLane="best" from="360473083#0" to="99006810#3"/>
    <trip id="veh150" type="veh_passenger" depart="433.75" departLane="best" from="45406821#1" to="651494743"/>
    <trip id="veh152" type="veh_passenger" depart="439.54" departLane="best" from="374541214#1" to="-370563772"/>
    <trip id="veh153" type="veh_passenger" depart="442.43" departLane="best" departSpeed="max" from="88504635#0" to="58611076#4"/>
    <trip id="veh155" type="veh_passenger" depart="448.21" departLane="best" from="345027470#4" to="23161434#1"/>
    <trip id="veh156" type="veh_passenger" depart="451.10" departLane="best" departSpeed="max" from="-232249771#1" to="110058627#0"/>
    <trip id="veh157" type="veh_passenger" depart="453.99" departLane="best" departSpeed="max" from="238119519#0" to="651494743"/>
    <trip id="veh158" type="veh_passenger" depart="456.89" departLane="best" from="99017509#2" to="190525291"/>
    <trip id="veh159" type="veh_passenger" depart="459.78" departLane="best" from="369466763" to="343432604#2"/>
    <trip id="veh160" type="veh_passenger" depart="462.67" departLane="best" from="-99017543#1" to="35915952#2"/>
    <trip id="veh161" type="veh_passenger" depart="465.56" departLane="best" from="99009671#4" to="373372505#4"/>
    <trip id="veh162" type="veh_passenger" depart="468.45" departLane="best" from="-99014776" to="190516471"/>
    <trip id="veh164" type="veh_passenger" depart="474.24" departLane="best" from="373871165#6" to="23161444#2"/>
    <trip id="veh165" type="veh_passenger" depart="477.13" departLane="best" from="360340126#2" to="358086119#2"/>
    <trip id="veh167" type="veh_passenger" depart="482.91" departLane="best" departSpeed="max" from="191173976#0" to="373868735#1"/>
    <trip id="veh168" type="veh_passenger" depart="485.80" departLane="best" departSpeed="max" from="-1181944626#1" to="99000862#5"/>
    <trip id="veh169" type="veh_passenger" depart="488.69" departLane="best" from="359284805#1" to="-373871153#1"/>
    <trip id="veh170" type="veh_passenger" depart="491.59" departLane="best" departSpeed="max" from="373214912#0" to="-232245092#2"/>
    <trip id="veh171" type="veh_passenger" depart="494.48" departLane="best" from="233190035" to="570520196"/>
    <trip id="veh172" type="veh_passenger" depart="497.37" departLane="best" from="373868705" to="23161419#4"/>
    <trip id="veh173" type="veh_passenger" depart="500.26" departLane="best" departSpeed="max" from="232249770" to="343435916#4"/>
    <trip id="veh174" type="veh_passenger" depart="503.15" departLane="best" from="343435994#2" to="224595862#4"/>
    <trip id="veh175" type="veh_passenger" depart="506.04" departLane="best" from="-61650345#2" to="343435994#0"/>
    <trip id="veh176" type="veh_passenger" depart="508.94" departLane="best" from="99009671#5" to="373376979#1"/>
    <trip id="veh177" type="veh_passenger" depart="511.83" departLane="best" from="98987949#4" to="372798467#0"/>
    <trip id="veh178" type="veh_passenger" depart="514.72" departLane="best" from="232245090" to="359285569"/>
    <trip id="veh179" type="veh_passenger" depart="517.61" departLane="best" from="-1053956304#1" to="191457583"/>
    <trip id="veh180" type="veh_passenger" depart="520.50" departLane="best" from="344983282#5" to="35963250"/>
    <trip id="veh181" type="veh_passenger" depart="523.40" departLane="best" from="372798461#0" to="344999457"/>
    <trip id="veh182" type="veh_passenger" depart="526.29" departLane="best" departSpeed="max" from="344983314" to="1185084461#0"/>
    <trip id="veh183" type="veh_passenger" depart="529.18" departLane="best" departSpeed="max" from="345027493" to="98983392"/>
    <trip id="veh184" type="veh_passenger" depart="532.07" departLane="best" from="375043051#2" to="-99009683#1"/>
    <trip id="veh185" type="veh_passenger" depart="534.96" departLane="best" from="-373370609#1" to="358089863#4"/>
    <trip id="veh186" type="veh_passenger" depart="537.85" departLane="best" from="360475999#2" to="-232249773#1"/>
    <trip id="veh187" type="veh_passenger" depart="540.75" departLane="best" from="53590479" to="373879412#3"/>
    <trip id="veh189" type="veh_passenger" depart="546.53" departLane="best" from="1188686208#1" to="-232249770"/>
    <trip id="veh190" type="veh_passenger" depart="549.42" departLane="best" departSpeed="max" from="190800508#0" to="345027478#2"/>
    <trip id="veh191" type="veh_passenger" depart="552.31" departLane="best" from="61650633#0" to="-344983301#0"/>
    <trip id="veh192" type="veh_passenger" depart="555.20" departLane="best" departSpeed="max" from="343436047#0" to="360478614"/>
    <trip id="veh193" type="veh_passenger" depart="558.10" departLane="best" departSpeed="max" from="1188686208#0" to="373401538#0"/>
    <trip id="veh194" type="veh_passenger" depart="560.99" departLane="best" from="35782220" to="149032231#0"/>
    <trip id="veh195" type="veh_passenger" depart="563.88" departLane="best" from="372798461#1" to="-1185229704#2"/>
    <trip id="veh196" type="veh_passenger" depart="566.77" departLane="best" departSpeed="max" from="-374251643#2" to="343436017#0"/>
    <trip id="veh197" type="veh_passenger" depart="569.66" departLane="best" from="1184835531#4" to="99014769#1"/>
    <trip id="veh198" type="veh_passenger" depart="572.55" departLane="best" from="358844251#4" to="-343435951"/>
    <trip id="veh199" type="veh_passenger" depart="575.45" departLane="best" departSpeed="max" from="190800508#0" to="570971372#0"/>
    <trip id="veh200" type="veh_passenger" depart="578.34" departLane="best" from="345027467#0" to="45409811#1"/>
    <trip id="veh201" type="veh_passenger" depart="581.23" departLane="best" from="373368133" to="99190343"/>
    <trip id="veh202" type="veh_passenger" depart="584.12" departLane="best" from="360339432" to="99014157#8"/>
    <trip id="veh204" type="veh_passenger" depart="589.90" departLane="best" from="373868701" to="358036176#3"/>
    <trip id="veh205" type="veh_passenger" depart="592.80" departLane="best" from="570019369" to="359285569"/>
    <trip id="veh206" type="veh_passenger" depart="595.69" departLane="best" departSpeed="max" from="98983433#0" to="373879406#1"/>
    <trip id="veh207" type="veh_passenger" depart="598.58" departLane="best" from="345027499#0" to="185127040"/>
    <trip id="veh208" type="veh_passenger" depart="601.47" departLane="best" departSpeed="max" from="190800508#0" to="369466771#1"/>
    <trip id="veh209" type="veh_passenger" depart="604.36" departLane="best" from="374410138#0" to="358344120#1"/>
    <trip id="veh210" type="veh_passenger" depart="607.25" departLane="best" departSpeed="max" from="360475990#0" to="190801148"/>
    <trip id="veh211" type="veh_passenger" depart="610.15" departLane="best" from="-35953773#3" to="191457582#0"/>
    <trip id="veh212" type="veh_passenger" depart="613.04" departLane="best" from="23051293#1" to="23162025#2"/>
    <trip id="veh213" type="veh_passenger" depart="615.93" departLane="best" from="359284805#4" to="-54179691"/>
    <trip id="veh214" type="veh_passenger" depart="618.82" departLane="best" from="-190426007#0" to="373389057"/>
    <trip id="veh215" type="veh_passenger" depart="621.71" departLane="best" from="373404528#1" to="344515354#0"/>
    <trip id="veh217" type="veh_passenger" depart="627.50" departLane="best" from="343436066#1" to="1184835531#3"/>
    <trip id="veh218" type="veh_passenger" depart="630.39" departLane="best" from="344740302#0" to="-98983433#2"/>
    <trip id="veh219" type="veh_passenger" depart="633.28" departLane="best" departSpeed="max" from="35964130#0" to="373401532#1"/>
    <trip id="veh220" type="veh_passenger" depart="636.17" departLane="best" from="770855642#0" to="374416154"/>
    <trip id="veh221" type="veh_passenger" depart="639.06" departLane="best" from="343432624#1" to="-1185229704#3"/>
    <trip id="veh222" type="veh_passenger" depart="641.95" departLane="best" from="297037200#2" to="374251640#1"/>
    <trip id="veh223" type="veh_passenger" depart="644.85" departLane="best" from="663504106#2" to="99014164#4"/>
    <trip id="veh224" type="veh_passenger" depart="647.74" departLane="best" from="344740295#1" to="373879411#1"/>
    <trip id="veh225" type="veh_passenger" depart="650.63" departLane="best" from="35931026#1" to="360340122#0"/>
    <trip id="veh226" type="veh_passenger" depart="653.52" departLane="best" from="98885173" to="1186605084#0"/>
    <trip id="veh227" type="veh_passenger" depart="656.41" departLane="best" from="344983293#3" to="-233192062"/>
    <trip id="veh228" type="veh_passenger" depart="659.30" departLane="best" departSpeed="max" from="259216452" to="373377042#1"/>
    <trip id="veh229" type="veh_passenger" depart="662.20" departLane="best" departSpeed="max" from="343435995" to="-99000863"/>
    <trip id="veh230" type="veh_passenger" depart="665.09" departLane="best" departSpeed="max" from="345027486#0" to="-373871178#1"/>
    <trip id="veh231" type="veh_passenger" depart="667.98" departLane="best" from="360475980" to="-232249777#0"/>
    <trip id="veh232" type="veh_passenger" depart="670.87" departLane="best" from="-232249779#3" to="369466788#5"/>
    <trip id="veh233" type="veh_passenger" depart="673.76" departLane="best" departSpeed="max" from="-98983392" to="344983282#4"/>
    <trip id="veh234" type="veh_passenger" depart="676.65" departLane="best" from="344963899#1" to="297041685#3"/>
    <trip id="veh236" type="veh_passenger" depart="682.44" departLane="best" from="374410125" to="297041685#3"/>
    <trip id="veh237" type="veh_passenger" depart="685.33" departLane="best" from="373879411#1" to="570001637"/>
    <trip id="veh238" type="veh_passenger" depart="688.22" departLane="best" from="191099602" to="-345027461#4"/>
    <trip id="veh239" type="veh_passenger" depart="691.11" departLane="best" from="232245092#0" to="35916356#1"/>
    <trip id="veh240" type="veh_passenger" depart="694.00" departLane="best" from="99712535#1" to="256535418#0"/>
    <trip id="veh241" type="veh_passenger" depart="696.90" departLane="best" departSpeed="max" from="370563772" to="374541208"/>
    <trip id="veh243" type="veh_passenger" depart="702.68" departLane="best" from="232245094#0" to="-98726589#0"/>
    <trip id="veh244" type="veh_passenger" depart="705.57" departLane="best" from="58611017#1" to="373369396#1"/>
    <trip id="veh245" type="veh_passenger" depart="708.46" departLane="best" from="359507075#0" to="-1185229704#3"/>
    <trip id="veh246" type="veh_passenger" depart="711.35" departLane="best" from="373389057" to="374416156"/>
    <trip id="veh247" type="veh_passenger" depart="714.25" departLane="best" from="1183634185" to="360340126#2"/>
    <trip id="veh249" type="veh_passenger" depart="720.03" departLane="best" from="-373871161" to="99017510#3"/>
    <trip id="veh251" type="veh_passenger" depart="725.81" departLane="best" from="232249779#0" to="373376979#1"/>
    <trip id="veh252" type="veh_passenger" depart="728.70" departLane="best" from="99014762" to="343432583"/>
    <trip id="veh253" type="veh_passenger" depart="731.60" departLane="best" from="373868694#0" to="-344983313#3"/>
    <trip id="veh254" type="veh_passenger" depart="734.49" departLane="best" from="373871883" to="374525510#1"/>
    <trip id="veh255" type="veh_passenger" depart="737.38" departLane="best" from="374541207" to="236593487"/>
    <trip id="veh256" type="veh_passenger" depart="740.27" departLane="best" from="344963903#3" to="292167395#1"/>
    <trip id="veh257" type="veh_passenger" depart="743.16" departLane="best" from="358086119#3" to="233192066"/>