<?xml version="1.0" encoding="UTF-8"?>

<!-- generated on 2024-07-01 13:02:55.011041 by osmWebWizard.py v1_19_0+0000-baa66a0f364
<configuration>
    <net-file value="C:\Users\Jaime\Sumo\2024-07-01-13-02-42\osm.net.xml.gz"/>
    <ptlines-file value="C:\Users\Jaime\Sumo\2024-07-01-13-02-42\osm_ptlines.xml"/>
    <ptstops-file value="C:\Users\Jaime\Sumo\2024-07-01-13-02-42\osm_stops.add.xml"/>
    <output-file value="C:\Users\Jaime\Sumo\2024-07-01-13-02-42\osm_pt.rou.xml"/>
    <stopinfos-file value="C:\Users\Jaime\Sumo\2024-07-01-13-02-42\stopinfos.xml"/>
    <routes-file value="C:\Users\Jaime\Sumo\2024-07-01-13-02-42\vehroutes.xml"/>
    <trips-file value="C:\Users\Jaime\Sumo\2024-07-01-13-02-42\trips.trips.xml"/>
    <end value="4000.0"/>
    <min-stops value="0"/>
    <extend-to-fringe value="True"/>
    <random-begin value="True"/>
    <seed value="42"/>
    <ignore-errors value="True"/>
    <vtype-prefix value="pt_"/>
    <verbose value="True"/>
</configuration>
-->

<routes xmlns:xsi="http://www.w3.org/2001/XMLSchema-instance" xsi:noNamespaceSchemaLocation="http://sumo.dlr.de/xsd/routes_file.xsd">
    <vType id="pt_bus" vClass="bus"/>
    <vType id="pt_tram" vClass="tram"/>
    <vType id="pt_train" vClass="rail"/>
    <vType id="pt_subway" vClass="rail_urban"/>
    <vType id="pt_light_rail" vClass="rail_urban"/>
    <vType id="pt_monorail" vClass="rail_urban"/>
    <vType id="pt_trolleybus" vClass="bus"/>
    <vType id="pt_minibus" vClass="bus"/>
    <vType id="pt_share_taxi" vClass="taxi"/>
    <vType id="pt_aerialway" vClass="rail_urban" length="2.5" width="2" personCapacity="4"/>
    <vType id="pt_ferry" vClass="ship"/>
    <route id="pt_bus_N1158:0" edges="35931470#0 35916356#0 35916356#1 35916356#2 35916356#4 280430700#0 280430700#1 538537997#0 -585068911" >
        <stop busStop="-4214996399" duration="20" until="81.0"/> <!-- Málaga, Andén 23 -->
    </route>
    <route id="pt_bus_N1158:1" edges="585068911 862827151#0 862827151#1 635509039#1 358086112 191457583 358055204#0 357190808#1" >
        <stop busStop="4214996399" duration="20" until="31.0"/> <!-- Málaga, Andén 23 -->
    </route>
    <route id="pt_bus_M-161:1" edges="538537997#0" >
        <stop busStop="2845457213" duration="20" until="31.0"/> <!-- None -->
    </route>
    <route id="pt_bus_92:0" edges="372818284#1" >
        <stop busStop="7775297888" duration="20" until="61.0"/> <!-- Avenida Explanada de la Estación - Estación FFCC -->
    </route>
    <route id="pt_train_AVE:0" edges="400333419 75307993#1 888582762" >
        <stop busStop="2608380462" duration="20" until="55.0"/> <!-- Málaga María Zambrano -->
    </route>
    <route id="pt_bus_C2:0" edges="35931470#0 372818284#1 358055210#0 35931000#1 256558103#1 373389057 358036176#0 358036176#2 358036176#3 190798145 184109465#0" >
        <stop busStop="2011648622" duration="20" until="55.0"/> <!-- Avenida Explanada de la Estación - Estación FFCC -->
    </route>
    <route id="pt_train_AVANT:0" edges="400333419 75307993#1 888582762" >
        <stop busStop="2608380462" duration="20" until="75.0"/> <!-- Málaga María Zambrano -->
    </route>
    <route id="pt_bus_91:1" edges="372818284#1 343436112#0 358055211#2 191457580#1" >
        <stop busStop="7775297888" duration="20" until="70.0"/> <!-- Avenida Explanada de la Estación - Estación FFCC -->
    </route>
    <route id="pt_bus_M-113:0" edges="1188686208#0 373379865 343435994#0 343435994#1 343435994#2 343435994#4 190525290#4 205029948#1 374410146#1 374410125 360340117#1 374410134#0 360340122#0 360340122#1 360340126#0 360340126#1 360340126#2 374410129 360340114 373389048 373389052 374410133#1 374410132 373389056#1 373389056#3 373389056#4 374410138#0 374410138#1 360340130#0 360340130#1 373389054#0 373389054#2 373389046#1 373389045 373389038#1 373389051#1 360339436#0 360339436#1 360339436#2 373389042 360339435 373389049#1 373389044 357734820 256539076#0 358303736#1 374525510#1 374525510#2 360339429 360339432 374527983#1 360339431#0 360339431#1 359150747#0 359150747#1 99006810#0 99006810#2 99006810#3" >
        <stop busStop="7772624491" duration="20" until="130.0"/> <!-- None -->
    </route>
    <route id="pt_bus_C1:0" edges="191173976#0 190525290#0 190525290#2 190525290#4 358055211#2 191457580#1" >
        <stop busStop="3674747255" duration="20" until="111.0"/> <!-- Cuarteles - Perchel -->
    </route>
    <route id="pt_bus_40:0" edges="349882515#0 349882515#2 349882515#3 373879411#0 373879411#1 373879411#2 373879411#3 292167395#1 1202270864#0 1188810219#0 1031928919#0 1031928919#1 1031928919#2 770855642#0 292167397" >
        <stop busStop="5348742178" duration="20" until="120.0"/> <!-- Paseo de Antonio Machado - Tomás Echeverría -->
    </route>
    <route id="pt_bus_1:0" edges="191173976#0 190525290#0 190525290#2 190525290#4 205029948#1 374410146#1 374410125 360340117#1 374410134#0 360340122#0 360340122#1 360340126#0 360340126#1 360340126#2 374410129 360340114 373389048 373389052 374410133#1 374410132 373389056#1 373389056#3 373389056#4 374410138#0 374410138#1 360340130#0 360340130#1 373389054#0 373389054#2 373389046#1 373389045 373389038#1 373389051#1 360339436#0 360339436#1 360339436#2 373389042 360339435 373389049#1 373389044 32257968#0 32257968#1 32257968#2 358844251#1 358844251#3 358844251#4 358844251#5 358844251#6 358844251#7 358844251#8 256535418#0 256535418#2 256535418#3 360464238#0 360464238#1 360464219#1 360464219#3" >
        <stop busStop="3674747255" duration="20" until="41.0"/> <!-- Cuarteles - Perchel -->
    </route>
    <route id="pt_bus_M-113:1" edges="236020411#0 256535557 190824293 570001640#0 570001640#1 53590479 1183634186#0 1183634186#1 1183634186#2 1183634186#3 1183634186#4 1183634186#5 358844255#0 358844255#2 372798466 256539072 372823140 343436007#0 369995508#0 369466763 369466788#0 369466788#2 369466788#3 369466788#4 369466788#5 360475994 369466779#0 369466779#1 369466779#2 360475999#0 360475999#2 369466771#0 369466771#1 360475997#0 360475997#2 360475997#3 360475997#5 343432590#0 369466755#0 360475981#0 360475981#2 369466746 360475979#1 360475979#2 360475978#0 360475978#2 27593742#0 360475980 27593740#1 360478605 360478618#0 360478618#1 360478618#2 190524677 358086120#0 292167397" >
        <stop busStop="8660674227" duration="20" until="336.0"/> <!-- None -->
    </route>
    <route id="pt_bus_VJA-O80:0" edges="585068943 -511082413 -862827151#0 -538537997#0 -280430700#2 -280430700#0 358086113#0 358086113#2 1201356844#0 1201356844#1 1201356844#2 1201356844#3 224595855 224595862#0 224595862#1 224595862#2 224595862#3 224595862#4 -35773484#1 54179791#0 54179791#2 54179791#3 185127034#1 185127034#2 373389056#4 374410138#0 374410138#1 360340130#0 360340130#1 373389054#0 35962366#0 373401528#1 373401528#2 360475997#0 360475997#2 360475997#3 360475997#5 343432590#0 369466755#0 360475981#0 360475981#2 369466746 360475979#1 360475979#2 360475978#0 360475978#2 27593742#0 360475980 27593740#1 360478605 360478618#0 360478618#1 360478618#2 190524677 358086120#0 292167397" >
        <stop busStop="4214996426" duration="20" until="31.0"/> <!-- Andén 39 -->
    </route>
    <route id="pt_bus_91:0" edges="191173976#0 190525290#0 190525290#2 190525290#4 358055211#2 191457582#0 372818284#1" >
        <stop busStop="3674747255" duration="20" until="97.0"/> <!-- Cuarteles - Perchel -->
    </route>
    <route id="pt_bus_N1:0" edges="191173976#0 190525290#0 190525290#2 190525290#4 205029948#1 374410146#1 374410125 360340117#1 374410134#0 360340122#0 360340122#1 360340126#0 360340126#1 360340126#2 374410129 360340114 373389048 373389052 374410133#1 374410132 373389056#1 373389056#3 373389056#4 374410138#0 374410138#1 360340130#0 360340130#1 373389054#0 373389054#2 373389046#1 373389045 373389038#1 373389051#1 360339436#0 360339436#1 360339436#2 373389042 360339435 373389049#1 373389044 357734820 256539076#0 358303736#1 374525510#1 374525510#2 360339429 360339432 374527983#1 360339431#0 360339431#1 359150747#0 359150747#1 99006810#0 99006810#2 99006810#3" >
        <stop busStop="3674747255" duration="20" until="62.0"/> <!-- Cuarteles - Perchel -->
    </route>
    <route id="pt_light_rail_L1:0" color="230,0,0" edges="-504224086#2 -504224086#1 -504224086#0 256045745" >
        <stop busStop="-4408159190" duration="20" until="46.0"/> <!-- Carranque -->
        <stop busStop="-4408155456" duration="20" until="127.0"/> <!-- Barbarela -->
        <stop busStop="-1625341615" duration="20" until="202.0"/> <!-- La Unión -->
        <stop busStop="8568996859" duration="20" until="277.0"/> <!-- El Perchel -->
        <stop busStop="-10765517126" duration="20" until="344.0"/> <!-- Guadalmedina -->
        <stop busStop="-2609573405" duration="20" until="413.0"/> <!-- Atarazanas -->
    </route>
    <route id="pt_bus_M-161:0" edges="538537997#0 -538537997#0 -280430700#2 -280430700#0 358086113#0 358086113#2 1201356844#0 1201356844#1 1201356844#2 1201356844#3 224595855 224595862#0 224595862#1 224595862#2 224595862#3 224595862#4 -35773484#1 54179791#0 54179791#2 54179791#3 185127034#1 185127034#2 373389056#4 374410138#0 374410138#1 360340130#0 360340130#1 373389054#0 35962366#0 373401528#1 373401528#2 360475997#0 360475997#2 360475997#3 360475997#5 343432590#0 369466755#0 360475981#0 360475981#2 369466746 360475979#1 360475979#2 360475978#0 360475978#2 27593742#0 360475980 27593740#1 360478605 360478618#0 360478618#1 360478618#2 190524677 358086120#0 292167397" >
        <stop busStop="2845457213" duration="20" until="31.0"/> <!-- None -->
    </route>
    <route id="pt_bus_40:1" edges="1188686208#0 1188686208#1 557959491 23051095#0 190524677 457202751 23051293#0 23051293#1 373879404#1 373879408#1 373879392#1 373879405#1 373879393#1 1202270863#0 1202270863#2 373879391#1 373879391#2 373879391#3 373879391#4 373879391#5 373879391#6 373879391#7 373879412#1 373879412#2 373879412#3 373879399#0 373879399#1 373879409#1 373879409#2 373879409#3 373879406#1 373879396#1" >
        <stop busStop="3762438183" duration="20" until="146.0"/> <!-- Paseo de Antonio Machado - Ingeniero Garnica -->
    </route>
    <route id="pt_train_C-1:1" color="97,155,193" edges="835577328 400333427" >
        <stop busStop="7571619025" duration="20" until="85.0"/> <!-- Málaga Centro - Alameda -->
        <stop busStop="6535024545" duration="20" until="530.0"/> <!-- Victoria Kent -->
    </route>
    <route id="pt_bus_3:0" edges="191173976#0 190525290#0 190525290#2 190525290#4 205029948#1 374410146#1 374410125 360340117#1 374410134#0 360340122#0 360340122#1 360340126#0 360340126#1 360340126#2 374410129 360340114 373389048 373389052 374410133#1 374410132 373389056#1 373389056#3 373389056#4 374410138#0 374410138#1 360340130#0 360340130#1 373389054#0 373389054#2 373389046#1 373389045 373389038#1 373389051#1 360339436#0 360339436#1 360339436#2 373389042 360339435 373389049#1 373389044 357734820 256539076#0 358303736#1 374525510#1 374525510#2 360339429 360339432 374527983#1 360339431#0 360339431#1 359150747#0 359150747#1 99006810#0 99006810#2 99006810#3" >
        <stop busStop="3674747255" duration="20" until="77.0"/> <!-- Cuarteles - Perchel -->
    </route>
    <route id="pt_bus_N2:0" edges="77609167#0 77609182#0 77609182#1 77609182#2 637617962 191099611#0 191099601#0 205029952 358303760 98726577#0 98726577#1 372800310#1 372800311 374536772#2 372800312#0 191099602 23161432 358344120#0 358344120#1 190525291 23161450#0 348595597 359285569" >
        <stop busStop="3754070340" duration="20" until="83.0"/> <!-- Avenida Juan XXIII - Barbarela -->
    </route>
    <route id="pt_bus_3:1" edges="236020411#0 256535557 190824293 570001640#0 570001640#1 53590479 1183634186#0 1183634186#1 1183634186#2 1183634186#3 1183634186#4 1183634186#5 358844255#0 358844255#2 372798466 256539072 372823140 343436007#0 369995508#0 369466763 369466788#0 369466788#2 369466788#3 369466788#4 369466788#5 360475994 369466779#0 369466779#1 369466779#2 360475999#0 360475999#2 369466771#0 369466771#1 360475997#0 360475997#2 360475997#3 360475997#5 343432590#0 369466755#0 360475981#0 360475981#2 369466746 360475979#1 360475979#2 360475978#0 360475978#2 27593742#0 360475980 256558103#1 373389057 358036176#0 358036176#2 358036176#3 190798145 184109465#0" >
        <stop busStop="3788852333" duration="20" until="71.0"/> <!-- Avenida de la Paloma - Barriada Girón -->
    </route>
    <route id="pt_bus_N1:1" edges="236020411#0 256535557 190824293 570001640#0 570001640#1 53590479 1183634186#0 1183634186#1 1183634186#2 1183634186#3 1183634186#4 1183634186#5 358844255#0 358844255#2 372798466 256539072 372823140 343436007#0 369995508#0 369466763 369466788#0 369466788#2 369466788#3 369466788#4 369466788#5 360475994 369466779#0 369466779#1 369466779#2 360475999#0 360475999#2 369466771#0 369466771#1 360475997#0 360475997#2 360475997#3 360475997#5 343432590#0 369466755#0 360475981#0 360475981#2 369466746 360475979#1 360475979#2 360475978#0 360475978#2 27593742#0 360475980 256558103#1 373389057 358036176#0 358036176#2 358036176#3 190798145 184109465#0" >
        <stop busStop="3788852333" duration="20" until="60.0"/> <!-- Avenida de la Paloma - Barriada Girón -->
    </route>
    <route id="pt_bus_1:1" edges="1186605083#0 1186605083#1 360464237 360464233#0 99009671#0 99009671#1 99009671#2 99009671#3 99009671#4 99009671#5 99009671#6 99009671#7 256544043 190824293 570001640#0 570001640#1 53590479 1183634186#0 1183634186#1 1183634186#2 1183634186#3 1183634186#4 1183634186#5 358844255#0 358844255#2 372798466 256539072 372823140 343436007#0 369995508#0 369466763 369466788#0 369466788#2 369466788#3 369466788#4 369466788#5 360475994 369466779#0 369466779#1 369466779#2 360475999#0 360475999#2 369466771#0 369466771#1 360475997#0 360475997#2 360475997#3 360475997#5 343432590#0 369466755#0 360475981#0 360475981#2 369466746 360475979#1 360475979#2 360475978#0 360475978#2 27593742#0 360475980 256558103#1 373389057 358036176#0 358036176#2 358036176#3 190798145 184109465#0" >
        <stop busStop="1145442066" duration="20" until="71.0"/> <!-- Avenida de Europa - Barriada El Torcal -->
    </route>
    <route id="pt_bus_27:0" edges="360475990#0 360475990#2 360475990#3 313109470#0 190525290#0 190525290#2 190525290#4 205029948#1 374410146#1 374410125 360340117#1 374410134#0 360340122#0 360340122#1 360340126#0 360340126#1 360340126#2 374410129 360340114 373389048 373389052 374410133#1 374410132 373389056#1 373389056#3 373389056#4 374410138#0 374410138#1 360340130#0 360340130#1 373389054#0 373389054#2 373389046#1 373389045 373389038#1 373389051#1 360339436#0 360339436#1 360339436#2 373389042 360339435 373389049#1 373389044 357734820 256539076#0 358303736#1 374525510#1 374525510#2 360339429 360339432 374527983#1 360339431#0 360339431#1 359150747#0 359150747#1 99006810#0 99006810#2 99006810#3" >
        <stop busStop="2011648615" duration="20" until="46.0"/> <!-- Plaza de Toros Vieja -->
    </route>
    <route id="pt_bus_22:1" edges="23161437#0 23161437#3 1204000535#0 99014164#0 99014164#1 99014164#3 99014164#4 99014164#6 99014164#7 99014164#8 99000843#1 99000843#2 297037199#0 297037199#2 1188809858 1188809857 1188809856 297037200#0 297037200#2 297037200#3 99009653 360464241#0 360464241#1 99009671#0 99009671#1 99009671#2 99009671#3 99009671#4 99009671#5 99009671#6 99009671#7 99006810#0 99006810#2 99006810#3" >
        <stop busStop="3638702944" duration="20" until="65.0"/> <!-- Avenida Ortega y Gasset - Santa Cristina -->
    </route>
    <route id="pt_light_rail_L2:0" color="23,59,160" edges="436582153#0 436582153#1 436582153#2 694231732" >
        <stop busStop="4344674995" duration="20" until="46.0"/> <!-- Palacio de los Deportes -->
        <stop busStop="3762485520" duration="20" until="122.0"/> <!-- Puerta Blanca -->
        <stop busStop="3762485517" duration="20" until="191.0"/> <!-- La Luz - La Paz -->
        <stop busStop="4409558424" duration="20" until="262.0"/> <!-- El Torcal -->
        <stop busStop="4409535923" duration="20" until="332.0"/> <!-- Princesa - Huelin -->
        <stop busStop="10858781452" duration="20" until="402.0"/> <!-- La Isla -->
        <stop busStop="6018008455" duration="20" until="483.0"/> <!-- El Perchel -->
        <stop busStop="6018008476" duration="20" until="546.0"/> <!-- Guadalmedina -->
    </route>
    <route id="pt_bus_A:0" edges="236020411#0 256535557 190824293 570001640#0 570001640#1 53590479 1183634186#0 1183634186#1 1183634186#2 1183634186#3 1183634186#4 1183634186#5 358844255#0 358844255#2 372798466 256539072 372823140 343436007#0 369995508#0 369466763 369466788#0 369466788#2 369466788#3 369466788#4 369466788#5 360475994 369466779#0 369466779#1 35963330 373404522#1 373404522#2 373404545#1 373404545#2 373404544#1 373404543 360339436#0 360339436#1 360339436#2 373389042 360339435 373389049#1 373389044 32257968#0 32257968#1 32257968#2 23161420#0 358844253#0 358844254#0 358844254#1 1185084125#0 1185084125#1 372798458#0 344515363#1 344515363#2 344515363#3 359507074#0 359507074#1 359507076#0 359507076#1 359507076#2 359507076#4 359507076#5 359507075#0 359507075#2 359507075#3 675882655#0 357818511#0 357818511#1 1190835335#0 1190835335#1 1190835335#2 1190835335#4 1190835335#6 359284805#1 359284805#2 359284805#3 359284805#4 359284804#0 359284804#1 191457583 358055204#0 357190808#1" >
        <stop busStop="3762423034" duration="20" until="164.0"/> <!-- La Hoz - Mercado de Huelin -->
    </route>
    <route id="pt_bus_VJA-019:0" edges="862827151#1 -511082413 -862827151#0 -538537997#0 -280430700#2 -280430700#0 358086113#0 358086113#2 1201356844#0 1201356844#1 1201356844#2 343436018#1 343436020 359169374 359169375 1190835335#6 259218554#0 259218554#1 259218554#2 259218554#3 375043048#0 375043048#1 375043040 375043049#0 191099604#0 191099604#1 190525291 422207231 23161434#0 23161434#1 23161434#2 23161434#3 23161434#4 23161434#5 23161434#6" >
        <stop busStop="10236258587" duration="20" until="34.0"/> <!-- None -->
    </route>
    <route id="pt_bus_27:1" edges="236020411#0 256535557 190824293 570001640#0 570001640#1 53590479 1183634186#0 1183634186#1 1183634186#2 1183634186#3 1183634186#4 1183634186#5 358844255#0 358844255#2 372798466 54179263#0 360473093 372798461#0 372798461#1 -1184789027#1 -373368139#4 -373368139#2 -373368139#1 -373368139#0 -35963719 233192080 374416161#1 374416163 374416158 374416165#2 360498016 -192425728 373879411#1 373879411#2 373879411#3 292167395#1 1202270864#0 1188810219#0 1031928919#0 1031928919#1 1031928919#2 770855642#0 292167397" >
        <stop busStop="3788852333" duration="20" until="86.0"/> <!-- Avenida de la Paloma - Barriada Girón -->
    </route>
    <route id="pt_bus_7:0" edges="360475990#0 360475990#2 360475990#3 313109470#0 190525290#0 190525290#2 190525290#4 205029948#1 374410146#1 374410125 360340117#1 374410134#0 360340122#0 360340122#1 360340126#0 360340126#1 360340126#2 374410129 360340114 373389048 373389052 374410133#1 374410132 373389056#1 373389056#3 373389056#4 374410138#0 374410138#1 360340130#0 360340130#1 373389054#0 373389054#2 373389046#1 373389045 373389038#1 373389051#1 360339436#0 360339436#1 360339436#2 373389042 360339435 373389049#1 373389044 357734820 256539076#0 358303736#1 374525510#1 374525510#2 360339429 360339432 374527983#1 360339431#0 360339431#1 99703366#0 99703366#1 190824293 651494743 343446214#0" >
        <stop busStop="2011648615" duration="20" until="46.0"/> <!-- Plaza de Toros Vieja -->
    </route>
    <route id="pt_bus_5:0" edges="191173976#0 190525290#0 190525290#2 190525290#4 205029948#1 374410146#1 374410125 360340117#1 374410134#0 360340122#0 360340122#1 360340126#0 360340126#1 360340126#2 374410129 360340114 373389048 373389052 374410133#1 374410132 373389056#1 373389056#3 373389056#4 374410138#0 374410138#1 360340130#0 360340130#1 373389054#0 373389054#2 373389046#1 373389045 373389038#1 373389051#1 360339436#0 360339436#1 360339436#2 373389042 360339435 373389049#1 373389044 357734820 256539076#0 358303736#1 374525510#1 374525510#2 360339429 360339432 374527983#1 360339431#0 360339431#1 359150747#0 359150747#1 99006810#0 99006810#2 99006810#3" >
        <stop busStop="3674747255" duration="20" until="41.0"/> <!-- Cuarteles - Perchel -->
    </route>
    <route id="pt_bus_31:1" edges="236020411#0 256535557 190824293 570001640#0 570001640#1 343435990#0 343435990#1 343435990#2 343435990#3 343435990#4 343435990#6 61785184#0 61785184#1 358844251#7 358844251#8 99009652 297037203 297037201#0 297037201#1 1188809854 1188809853 297038354#0 297038354#2 343432604#0 343432604#1 343432604#2 938129117#0 190426008 45409819#0 45409819#1 99014157#0 99014157#1 99014157#2 99014157#3 99014157#5 99014157#7 99014157#8 99014157#9 1204000539#0 1204000534 1204000541 45409811#0 45409811#1 45409811#2 45409811#3 45409811#4 45409811#5 45409811#6 99017515#2" >
        <stop busStop="3788852333" duration="20" until="59.0"/> <!-- Avenida de la Paloma - Barriada Girón -->
    </route>
    <route id="pt_train_C-1:0" color="97,155,193" edges="-61653013 835577328" >
        <stop busStop="-7567516122" duration="20" until="89.0"/> <!-- Victoria Kent -->
        <stop busStop="7571619023" duration="20" until="314.0"/> <!-- Málaga María Zambrano -->
        <stop busStop="7571619025" duration="20" until="819.0"/> <!-- Málaga Centro - Alameda -->
    </route>
    <route id="pt_bus_31:0" edges="88504635#0 -99017523#4 -99017523#2 -99017523#1 -99017523#0 98885180#0 98885180#1 344740302#0 344740302#1 344740302#2 77609182#0 77609182#1 77609182#2 357759046#0 205029946#0 205029946#1 205029946#2 372798455 358089857#0 149032230#0 149032233 190524657#0 190524657#2 358303732#0 358303732#1 1185084123 372798456#0 23051262#0 358303736#1 374525510#1 374525510#2 360339429 360339432 374527983#1 360339431#0 360339431#1 359150747#0 359150747#1 99006810#0 99006810#2 99006810#3" >
        <stop busStop="-5417047630" duration="20" until="69.0"/> <!-- Corregidor Francisco de Molina - Corazones -->
    </route>
    <route id="pt_bus_10:0" edges="191173976#0 190525290#0 190525290#2 190525290#4 205029948#1 374410146#1 374410125 360340117#1 374410134#0 360340122#0 360340122#1 360340126#0 360340126#1 360340126#2 374410129 360340114 373389048 373389052 374410133#1 374410132 373389056#1 373389056#3 373389056#4 374410138#0 374410138#1 360340130#0 360340130#1 373389054#0 373389054#2 373389046#1 373389045 373389038#1 373389051#1 360339436#0 360339436#1 360339436#2 373389042 360339435 373389049#1 373389044 357734820 256539076#0 358303736#1 374525510#1 374525510#2 360339429 360339432 374527983#1 360339431#0 360339431#1 359150747#0 359150747#1 99006810#0 99006810#2 99006810#3" >
        <stop busStop="3674747255" duration="20" until="74.0"/> <!-- Cuarteles - Perchel -->
    </route>
    <route id="pt_bus_20:1" edges="360475990#0 360475990#2 360475990#3 313109470#0 190525290#0 190525290#2 190525290#4 205029948#1 374410146#1 374410125 360340117#1 374410134#0 360340122#0 360340122#1 360340126#0 360340126#1 360340126#2 374410129 360340114 373389048 373389052 374410133#1 374410132 373389056#1 373389056#3 373389056#4 374410138#0 374410138#1 360340130#0 360340130#1 373389054#0 373389054#2 373389046#1 373389045 373389038#1 373389051#1 360339436#0 360339436#1 360339436#2 373389042 360339435 373389049#1 373389044 32257968#0 32257968#1 32257968#2 358844251#1 358844251#3 358844251#4 358844251#5 358844251#6 358844251#7 358844251#8 99009652 297037203 297037201#0 297037201#1 1188809854 1188809853 297038354#0 297038354#2 343432604#0 343432604#1 343432604#2 938129117#0 190426008 938129118#0 938129123#1 938129123#2 938129123#3 190525281#0 190525281#1 110058627#0 110058627#1 110058627#3 110058627#4 358089888#0 358089888#1" >
        <stop busStop="2011648615" duration="20" until="58.0"/> <!-- Plaza de Toros Vieja -->
    </route>
    <route id="pt_bus_5:1" edges="236020411#0 256535557 190824293 570001640#0 570001640#1 53590479 1183634186#0 1183634186#1 1183634186#2 1183634186#3 1183634186#4 1183634186#5 358844255#0 358844255#2 372798466 256539072 372823140 343436007#0 369995508#0 369466763 369466788#0 369466788#2 369466788#3 369466788#4 369466788#5 360475994 369466779#0 369466779#1 369466779#2 360475999#0 360475999#2 369466771#0 369466771#1 360475997#0 360475997#2 360475997#3 360475997#5 343432590#0 369466755#0 360475981#0 360475981#2 369466746 360475979#1 360475979#2 360475978#0 360475978#2 27593742#0 360475980 256558103#1 373389057 358036176#0 358036176#2 358036176#3 190798145 184109465#0" >
        <stop busStop="3788852333" duration="20" until="59.0"/> <!-- Avenida de la Paloma - Barriada Girón -->
    </route>
    <route id="pt_bus_7:1" edges="190800508#0 360471709#1 35962646#0 256539072 372823140 343436007#0 369995508#0 369466763 369466788#0 369466788#2 369466788#3 369466788#4 369466788#5 360475994 369466779#0 369466779#1 369466779#2 360475999#0 360475999#2 369466771#0 369466771#1 360475997#0 360475997#2 360475997#3 360475997#5 343432590#0 369466755#0 360475981#0 360475981#2 369466746 360475979#1 360475979#2 360475978#0 360475978#2 27593742#0 360475980 256558103#1 373389057 358036176#0 358036176#2 358036176#3 190798145 184109465#0" >
        <stop busStop="3762423034" duration="20" until="109.0"/> <!-- La Hoz - Mercado de Huelin -->
    </route>
    <route id="pt_bus_19:0" edges="359284811 375043044#0 375043044#1 375043042 375043051#0 375043051#1 375043051#2 375043051#3 375043051#4 375043047#0 375043047#1 375043050#0 375043048#0 375043048#1 375043040 375043049#0 191099604#0 191099604#1 190525291 422207231 357759079#0 357759079#2 190429167#0 359353516#0 374534944#0 374534944#1 190429170#0 534660454 637617962 190429172#0 190429172#1 190429172#2 190429172#3 190429172#4 190429172#6 358303730#1 358303730#2 1204000541 1204000540#0 1204000537#0 534872271#1 534872271#2 534872271#3" >
        <stop busStop="2011648626" duration="20" until="56.0"/> <!-- Paseo de los Tilos - Calatrava -->
    </route>
    <route id="pt_bus_22:0" edges="236020411#0 256535557 190824293 570001640#0 570001640#1 343435990#0 343435990#1 343435990#2 343435990#3 343435990#4 343435990#6 61785184#0 61785184#1 358844251#7 358844251#8 99009652 297037203 297037201#0 297037201#1 1188809854 1188809853 297038354#0 297038354#2 343432604#0 343432604#1 343432604#2 938129117#0 190426008 45409819#0 45409819#1 99014157#0 99014157#1 99014157#2 99014157#3 99014157#5 99014157#7 99014157#8 99014157#9 1204000539#0 1204000534 1204000541 1204000540#0 1204000537#0 534872271#1 534872271#2 534872271#3" >
        <stop busStop="5395411782" duration="20" until="68.0"/> <!-- Isla Cristina -->
    </route>
    <route id="pt_bus_20:0" edges="99000839#0 358089885#0 358089885#1 358089885#2 23161419#0 23161419#1 23161419#2 23161419#4 99000841#0 99000841#1 99000841#2 896209495#0 896209495#1 99000843#1 99000843#2 297037199#0 297037199#2 1188809858 1188809857 1188809856 297037200#0 297037200#2 297037200#3 99009653 360464241#0 360464241#1 99009671#0 99009671#1 99009671#2 99009671#3 99009671#4 99009671#5 99009671#6 99009671#7 256544043 190824293 570001640#0 570001640#1 53590479 1183634186#0 1183634186#1 1183634186#2 1183634186#3 1183634186#4 1183634186#5 358844255#0 358844255#2 372798466 54179263#0 360473093 372798461#0 372798461#1 -1184789027#1 -373368139#4 -373368139#2 -373368139#1 -373368139#0 -35963719 233192080 374416161#1 374416163 374416158 374416165#2 360498016 -192425728 373879411#1 373879411#2 373879411#3 292167395#1 1202270864#0 1188810219#0 1031928919#0 1031928919#1 1031928919#2 770855642#0 292167397" >
        <stop busStop="2011638592" duration="20" until="52.0"/> <!-- Camino de San Rafael - El Copo -->
    </route>
    <route id="pt_bus_9:0" edges="191173976#0 190525290#0 190525290#2 190525290#4 205029948#1 374410146#1 374410125 360340117#1 374410134#0 360340122#0 360340122#1 360340126#0 360340126#1 360340126#2 374410129 360340114 373389048 373389052 374410133#1 374410132 373389056#1 373389056#3 373389056#4 374410138#0 374410138#1 360340130#0 360340130#1 373389054#0 373389054#2 373389046#1 373389045 373389038#1 373389051#1 360339436#0 360339436#1 360339436#2 373389042 360339435 373389049#1 373389044 357734820 256539076#0 358303736#1 374525510#1 374525510#2 360339429 360339432 374527983#1 360339431#0 360339431#1 359150747#0 359150747#1 99006810#0 99006810#2 99006810#3" >
        <stop busStop="3674747255" duration="20" until="42.0"/> <!-- Cuarteles - Perchel -->
    </route>
    <route id="pt_train_C-2:0" color="0,135,77" edges="-61653013 835577328" >
        <stop busStop="-7567516122" duration="20" until="123.0"/> <!-- Victoria Kent -->
        <stop busStop="7571619023" duration="20" until="350.0"/> <!-- Málaga María Zambrano -->
        <stop busStop="7571619025" duration="20" until="853.0"/> <!-- Málaga Centro - Alameda -->
    </route>
    <route id="pt_bus_19:1" edges="23161437#0 23161437#3 1204000536#0 534872273#0 534872273#1 534872273#2 534872273#3 534872273#4 534872273#5 1184835531#0 1184835531#1 1184835531#3 1184835531#4 1184835531#5 1184835531#6 1184835531#7 1184835531#8 191099601#0 205029952 358303760 98726577#0 98726577#1 372800310#1 372800311 374536772#2 372800312#0 191099602 23161432 23161433#0 344515356 359365606#0 359365606#1 359365606#2 357818511#0 357818511#1 1190835335#0 1190835335#1 1190835335#2 1190835335#4 1190835335#6 359284805#1 359284805#2 359284805#3 359284805#4 359284804#0 359284804#1 191457583 358055204#0 357190808#1" >
        <stop busStop="3638702944" duration="20" until="42.0"/> <!-- Avenida Ortega y Gasset - Santa Cristina -->
    </route>