<?xml version="1.0" encoding="UTF-8"?>

<!-- generated on 2024-04-18 17:34:57.217160 by osmWebWizard.py v1_19_0+0000-baa66a0f364
<configuration>
    <net-file value="C:\Users\Jaime\Sumo\2024-04-18-17-34-18\osm.net.xml.gz"/>
    <output-trip-file value="C:\Users\Jaime\Sumo\2024-04-18-17-34-18\osm.passenger.trips.xml"/>
    <route-file value="C:\Users\Jaime\Sumo\2024-04-18-17-34-18\osm.passenger.rou.xml"/>
    <prefix value="veh"/>
    <trip-attributes value="departLane=&quot;best&quot;"/>
    <fringe-start-attributes value="departSpeed=&quot;max&quot;"/>
    <vehicle-class value="passenger"/>
    <lanes value="True"/>
    <fringe-factor value="5"/>
    <allow-fringe.min-length value="1000.0"/>
    <via-edge-types value="highway.motorway,highway.motorway_link,highway.trunk_link,highway.primary_link,highway.secondary_link,highway.tertiary_link"/>
    <min-distance value="300.0"/>
    <min-distance.fringe value="10.0"/>
    <remove-loops value="True"/>
    <validate value="True"/>
    <insertion-density value="12.0"/>
</configuration>
-->

<!-- generated on 2024-04-18 17:34:54 by Eclipse SUMO duarouter Version 1.19.0
<configuration xmlns:xsi="http://www.w3.org/2001/XMLSchema-instance" xsi:noNamespaceSchemaLocation="http://sumo.dlr.de/xsd/duarouterConfiguration.xsd">

    <input>
        <net-file value="C:\Users\Jaime\Sumo\2024-04-18-17-34-18\osm.net.xml.gz"/>
        <route-files value="C:\Users\Jaime\Sumo\2024-04-18-17-34-18\osm.passenger.trips.xml"/>
    </input>

    <output>
        <output-file value="C:\Users\Jaime\Sumo\2024-04-18-17-34-18\osm.passenger.trips.xml.tmp"/>
        <alternatives-output value="NUL"/>
        <write-trips value="true"/>
    </output>

    <processing>
        <remove-loops value="true"/>
    </processing>

    <time>
        <begin value="0.0"/>
        <end value="3600.0"/>
    </time>

    <report>
        <no-warnings value="true"/>
        <ignore-errors value="true"/>
        <no-step-log value="true"/>
    </report>

</configuration>
-->

<routes xmlns:xsi="http://www.w3.org/2001/XMLSchema-instance" xsi:noNamespaceSchemaLocation="http://sumo.dlr.de/xsd/routes_file.xsd">
    <vType id="veh_passenger" vClass="passenger"/>
    <trip id="veh0" type="veh_passenger" depart="0.00" departLane="best" from="380886524#0" to="-183591289"/>
    <trip id="veh1" type="veh_passenger" depart="1.44" departLane="best" from="-802928727#0" to="-68338937#0"/>
    <trip id="veh3" type="veh_passenger" depart="4.33" departLane="best" from="68566064" to="-276525454#5"/>
    <trip id="veh4" type="veh_passenger" depart="5.78" departLane="best" from="228938203#2" to="-198583663#0"/>
    <trip id="veh5" type="veh_passenger" depart="7.22" departLane="best" departSpeed="max" from="-4886272#2" to="-277990049#1"/>
    <trip id="veh6" type="veh_passenger" depart="8.66" departLane="best" departSpeed="max" from="-179432892#1" to="-482037303#1"/>
    <trip id="veh8" type="veh_passenger" depart="11.55" departLane="best" from="-4886294#4" to="35551739#6"/>
    <trip id="veh9" type="veh_passenger" depart="13.00" departLane="best" departSpeed="max" from="475328411#0" to="-118700101"/>
    <trip id="veh10" type="veh_passenger" depart="14.44" departLane="best" from="47250931#0" to="4341920#9"/>
    <trip id="veh11" type="veh_passenger" depart="15.88" departLane="best" from="1121493387" to="-43322663#1"/>
    <trip id="veh12" type="veh_passenger" depart="17.33" departLane="best" from="859225828" to="130422164#0"/>
    <trip id="veh13" type="veh_passenger" depart="18.77" departLane="best" from="-276541772#1" to="-277990054#0"/>
    <trip id="veh14" type="veh_passenger" depart="20.22" departLane="best" departSpeed="max" from="55448858#0" to="-370661162#4"/>
    <trip id="veh15" type="veh_passenger" depart="21.66" departLane="best" from="-47250951#3" to="445748618#0"/>
    <trip id="veh16" type="veh_passenger" depart="23.10" departLane="best" from="277791366#0" to="909033350#1"/>
    <trip id="veh17" type="veh_passenger" depart="24.55" departLane="best" from="130425445#1" to="314846526#5"/>
    <trip id="veh18" type="veh_passenger" depart="25.99" departLane="best" from="-4893846" to="40623249#0"/>
    <trip id="veh19" type="veh_passenger" depart="27.44" departLane="best" from="61885818" to="333302628#0"/>
    <trip id="veh20" type="veh_passenger" depart="28.88" departLane="best" departSpeed="max" from="-491939797" to="4880959#0"/>
    <trip id="veh21" type="veh_passenger" depart="30.32" departLane="best" from="-26258184#1" to="-742134238"/>
    <trip id="veh22" type="veh_passenger" depart="31.77" departLane="best" from="-278787245" to="-943504731#0"/>
    <trip id="veh23" type="veh_passenger" depart="33.21" departLane="best" departSpeed="max" from="370661162#0" to="179432892#1"/>
    <trip id="veh24" type="veh_passenger" depart="34.66" departLane="best" from="1259639655#1" to="-55448002"/>
    <trip id="veh25" type="veh_passenger" depart="36.10" departLane="best" departSpeed="max" from="-781283777" to="826154177"/>
    <trip id="veh26" type="veh_passenger" depart="37.54" departLane="best" from="40623249#5" to="390417056#4"/>
    <trip id="veh27" type="veh_passenger" depart="38.99" departLane="best" departSpeed="max" from="-4337793" to="445731773#1"/>
    <trip id="veh28" type="veh_passenger" depart="40.43" departLane="best" from="-422790648#1" to="222012185"/>
    <trip id="veh29" type="veh_passenger" depart="41.88" departLane="best" from="937995133" to="-134213362#10"/>
    <trip id="veh30" type="veh_passenger" depart="43.32" departLane="best" from="282950713#1" to="4340627#0"/>
    <trip id="veh31" type="veh_passenger" depart="44.76" departLane="best" from="517712706#3" to="-448780350#1"/>
    <trip id="veh32" type="veh_passenger" depart="46.21" departLane="best" from="-4926599" to="-214448797#0"/>
    <trip id="veh33" type="veh_passenger" depart="47.65" departLane="best" from="968749921#1" to="913963949"/>
    <trip id="veh34" type="veh_passenger" depart="49.10" departLane="best" departSpeed="max" from="-47251151#1" to="1259639652"/>
    <trip id="veh35" type="veh_passenger" depart="50.54" departLane="best" from="68235382" to="1191691622"/>
    <trip id="veh36" type="veh_passenger" depart="51.98" departLane="best" from="428461893#1-AddedOffRampEdge" to="23863910#3"/>
    <trip id="veh37" type="veh_passenger" depart="53.43" departLane="best" from="784238392" to="25876174#6"/>
    <trip id="veh38" type="veh_passenger" depart="54.87" departLane="best" departSpeed="max" from="-732086365" to="-839563348#1"/>
    <trip id="veh39" type="veh_passenger" depart="56.32" departLane="best" departSpeed="max" from="28428728" to="-894686382#0"/>
    <trip id="veh40" type="veh_passenger" depart="57.76" departLane="best" from="314846526#3" to="721100818"/>
    <trip id="veh41" type="veh_passenger" depart="59.20" departLane="best" departSpeed="max" from="985556210" to="278031462#0"/>
    <trip id="veh42" type="veh_passenger" depart="60.65" departLane="best" from="-276525454#5" to="-23863917#7"/>
    <trip id="veh43" type="veh_passenger" depart="62.09" departLane="best" from="-279736632#1" to="427186591"/>
    <trip id="veh44" type="veh_passenger" depart="63.54" departLane="best" from="448670832#0" to="24273171#0"/>
    <trip id="veh45" type="veh_passenger" depart="64.98" departLane="best" departSpeed="max" from="-24275269#1" to="228938203#0"/>
    <trip id="veh46" type="veh_passenger" depart="66.42" departLane="best" from="909033346#1" to="67058516#2"/>
    <trip id="veh47" type="veh_passenger" depart="67.87" departLane="best" from="-120666981#2" to="-4359019#1"/>
    <trip id="veh48" type="veh_passenger" depart="69.31" departLane="best" from="4337949" to="28441902#0"/>
    <trip id="veh49" type="veh_passenger" depart="70.76" departLane="best" departSpeed="max" from="-781283777" to="43330238#1"/>
    <trip id="veh50" type="veh_passenger" depart="72.20" departLane="best" from="-28428719#2" to="24275269#1"/>
    <trip id="veh51" type="veh_passenger" depart="73.65" departLane="best" from="-24269670#7" to="852014203#0"/>
    <trip id="veh52" type="veh_passenger" depart="75.09" departLane="best" from="-68235415#0" to="895285358#1"/>
    <trip id="veh54" type="veh_passenger" depart="77.98" departLane="best" from="781299714#1" to="68235433#2"/>
    <trip id="veh55" type="veh_passenger" depart="79.42" departLane="best" from="-894686364#1" to="-43322221#3"/>
    <trip id="veh56" type="veh_passenger" depart="80.87" departLane="best" from="333302642#1" to="428461929#1"/>
    <trip id="veh57" type="veh_passenger" depart="82.31" departLane="best" from="-446822056#2" to="28442362#2"/>
    <trip id="veh58" type="veh_passenger" depart="83.75" departLane="best" from="448482984#1" to="28440404#3"/>
    <trip id="veh59" type="veh_passenger" depart="85.20" departLane="best" from="-1001524696#1" to="120272627#1"/>
    <trip id="veh60" type="veh_passenger" depart="86.64" departLane="best" from="130639471" to="-822482102#0"/>
    <trip id="veh61" type="veh_passenger" depart="88.09" departLane="best" from="68235445" to="517712706#1"/>
    <trip id="veh62" type="veh_passenger" depart="89.53" departLane="best" from="-935482735" to="24271488"/>
    <trip id="veh63" type="veh_passenger" depart="90.97" departLane="best" from="68235434" to="-841704791#1"/>
    <trip id="veh64" type="veh_passenger" depart="92.42" departLane="best" from="-274833676#5" to="-275921314"/>
    <trip id="veh65" type="veh_passenger" depart="93.86" departLane="best" departSpeed="max" from="-25030062#1" to="448484305#1"/>
    <trip id="veh66" type="veh_passenger" depart="95.31" departLane="best" from="448195255#0" to="-340593443#0"/>
    <trip id="veh67" type="veh_passenger" depart="96.75" departLane="best" from="24275275#0" to="314842235#2"/>
    <trip id="veh68" type="veh_passenger" depart="98.19" departLane="best" departSpeed="max" from="-732086365" to="68235436#1"/>
    <trip id="veh69" type="veh_passenger" depart="99.64" departLane="best" departSpeed="max" from="228938205#0" to="-55449411#0"/>
    <trip id="veh70" type="veh_passenger" depart="101.08" departLane="best" from="-277850638#3" to="445748618#1"/>
    <trip id="veh71" type="veh_passenger" depart="102.53" departLane="best" from="448471735#0" to="115722926#0"/>
    <trip id="veh72" type="veh_passenger" depart="103.97" departLane="best" departSpeed="max" from="969735370#0" to="4337793"/>
    <trip id="veh73" type="veh_passenger" depart="105.41" departLane="best" departSpeed="max" from="23863917#0" to="279537927#3"/>
    <trip id="veh74" type="veh_passenger" depart="106.86" departLane="best" departSpeed="max" from="-28442362#2" to="-68339221#1"/>
    <trip id="veh75" type="veh_passenger" depart="108.30" departLane="best" from="1118289818#1" to="35551739#0"/>
    <trip id="veh76" type="veh_passenger" depart="109.75" departLane="best" from="-4943729#0" to="-68235390#1"/>
    <trip id="veh77" type="veh_passenger" depart="111.19" departLane="best" from="25113754" to="428461897"/>
    <trip id="veh78" type="veh_passenger" depart="112.63" departLane="best" from="4926596" to="771673197"/>
    <trip id="veh79" type="veh_passenger" depart="114.08" departLane="best" from="59549878#2" to="25876174#10"/>
    <trip id="veh80" type="veh_passenger" depart="115.52" departLane="best" departSpeed="max" from="-55610310#3" to="-4339957#1"/>
    <trip id="veh81" type="veh_passenger" depart="116.97" departLane="best" departSpeed="max" from="-475328412#1" to="-35551747#0"/>
    <trip id="veh82" type="veh_passenger" depart="118.41" departLane="best" departSpeed="max" from="24274721" to="47085873#1"/>
    <trip id="veh83" type="veh_passenger" depart="119.85" departLane="best" from="-47251243#1" to="-45744816"/>
    <trip id="veh84" type="veh_passenger" depart="121.30" departLane="best" from="-277850637#2" to="24274722"/>
    <trip id="veh85" type="veh_passenger" depart="122.74" departLane="best" departSpeed="max" from="228938205#0" to="26258195#3"/>
    <trip id="veh86" type="veh_passenger" depart="124.19" departLane="best" from="4342499#1" to="4339993#3"/>
    <trip id="veh87" type="veh_passenger" depart="125.63" departLane="best" from="924457759#1" to="-278787249"/>
    <trip id="veh88" type="veh_passenger" depart="127.07" departLane="best" departSpeed="max" from="188727327#0" to="130422176#1"/>
    <trip id="veh89" type="veh_passenger" depart="128.52" departLane="best" from="4356086#5" to="25114514"/>
    <trip id="veh90" type="veh_passenger" depart="129.96" departLane="best" from="228938203#2" to="-943504736#0"/>
    <trip id="veh91" type="veh_passenger" depart="131.41" departLane="best" departSpeed="max" from="-68235436#1" to="-80233149#11"/>
    <trip id="veh92" type="veh_passenger" depart="132.85" departLane="best" from="23863954#5" to="67066395#0"/>
    <trip id="veh93" type="veh_passenger" depart="134.29" departLane="best" from="278790909#2" to="23863966#0"/>
    <trip id="veh94" type="veh_passenger" depart="135.74" departLane="best" from="986973234" to="55363143#1"/>
    <trip id="veh95" type="veh_passenger" depart="137.18" departLane="best" from="-895834602#0" to="813581776"/>
    <trip id="veh96" type="veh_passenger" depart="138.63" departLane="best" from="55448860#0" to="-4341888#8"/>
    <trip id="veh97" type="veh_passenger" depart="140.07" departLane="best" from="25114652" to="55491358#3"/>
    <trip id="veh98" type="veh_passenger" depart="141.51" departLane="best" from="183591292#2" to="-24273281#4"/>
    <trip id="veh99" type="veh_passenger" depart="142.96" departLane="best" departSpeed="max" from="130638178" to="926297773#4"/>
    <trip id="veh100" type="veh_passenger" depart="144.40" departLane="best" departSpeed="max" from="-732086365" to="46921079#3"/>
    <trip id="veh101" type="veh_passenger" depart="145.85" departLane="best" from="24270178#0" to="24273281#1"/>
    <trip id="veh102" type="veh_passenger" depart="147.29" departLane="best" from="859225828" to="969735366"/>
    <trip id="veh103" type="veh_passenger" depart="148.73" departLane="best" from="-279968705#3" to="4356085#10"/>
    <trip id="veh104" type="veh_passenger" depart="150.18" departLane="best" from="40623036#6" to="-109709111#1"/>
    <trip id="veh105" type="veh_passenger" depart="151.62" departLane="best" from="895828587#1" to="333302642#1"/>
    <trip id="veh106" type="veh_passenger" depart="153.07" departLane="best" from="277990052#0" to="448473410"/>
    <trip id="veh107" type="veh_passenger" depart="154.51" departLane="best" from="24273703#0" to="-340593443#0"/>
    <trip id="veh108" type="veh_passenger" depart="155.95" departLane="best" from="26254547#3" to="62014091#3"/>
    <trip id="veh109" type="veh_passenger" depart="157.40" departLane="best" departSpeed="max" from="-40623190" to="892632789#0"/>
    <trip id="veh110" type="veh_passenger" depart="158.84" departLane="best" departSpeed="max" from="-26258196" to="448471735#1"/>
    <trip id="veh111" type="veh_passenger" depart="160.29" departLane="best" from="333302561" to="4340001#2"/>
    <trip id="veh112" type="veh_passenger" depart="161.73" departLane="best" from="55448860#3" to="-333302597"/>
    <trip id="veh113" type="veh_passenger" depart="163.17" departLane="best" from="68340101" to="-839563347#2"/>
    <trip id="veh114" type="veh_passenger" depart="164.62" departLane="best" from="-434557302" to="407466220#0"/>
    <trip id="veh115" type="veh_passenger" depart="166.06" departLane="best" departSpeed="max" from="224708935" to="333302753#0"/>
    <trip id="veh116" type="veh_passenger" depart="167.51" departLane="best" from="276022556#2" to="825146248"/>
    <trip id="veh117" type="veh_passenger" depart="168.95" departLane="best" from="448490148#2" to="4349273#1"/>
    <trip id="veh118" type="veh_passenger" depart="170.39" departLane="best" from="937995132" to="23863910#3"/>
    <trip id="veh119" type="veh_passenger" depart="171.84" departLane="best" departSpeed="max" from="4336982#0" to="109733964#4"/>
    <trip id="veh120" type="veh_passenger" depart="173.28" departLane="best" from="969473115#3" to="448475776#1"/>
    <trip id="veh121" type="veh_passenger" depart="174.73" departLane="best" from="-25875686#2" to="25876174#2"/>
    <trip id="veh122" type="veh_passenger" depart="176.17" departLane="best" departSpeed="max" from="985556212#0" to="971094742"/>
    <trip id="veh123" type="veh_passenger" depart="177.61" departLane="best" departSpeed="max" from="-25875692#2" to="55491357#0"/>
    <trip id="veh124" type="veh_passenger" depart="179.06" departLane="best" departSpeed="max" from="-732086365" to="825138142#2"/>
    <trip id="veh125" type="veh_passenger" depart="180.50" departLane="best" from="68235471" to="68259827#1"/>
    <trip id="veh126" type="veh_passenger" depart="181.95" departLane="best" from="1259639652" to="-4337789#0"/>
    <trip id="veh128" type="veh_passenger" depart="184.83" departLane="best" from="333302649#2" to="932777162"/>
    <trip id="veh129" type="veh_passenger" depart="186.28" departLane="best" from="427186594" to="-1192734406#0"/>
    <trip id="veh130" type="veh_passenger" depart="187.72" departLane="best" from="4876826#7" to="109733964#0"/>
    <trip id="veh131" type="veh_passenger" depart="189.17" departLane="best" from="43322220" to="826480483#1"/>
    <trip id="veh132" type="veh_passenger" depart="190.61" departLane="best" departSpeed="max" from="-333302620#1" to="-294144575"/>
    <trip id="veh133" type="veh_passenger" depart="192.05" departLane="best" from="-279510196#2" to="314846548"/>
    <trip id="veh134" type="veh_passenger" depart="193.50" departLane="best" from="80233149#9" to="378882498#1"/>
    <trip id="veh135" type="veh_passenger" depart="194.94" departLane="best" from="4341912" to="491736706"/>
    <trip id="veh136" type="veh_passenger" depart="196.39" departLane="best" from="366659840" to="895285361#1"/>
    <trip id="veh137" type="veh_passenger" depart="197.83" departLane="best" from="25115305#2" to="759058472#2"/>
    <trip id="veh138" type="veh_passenger" depart="199.27" departLane="best" from="55361729" to="-277850637#5"/>
    <trip id="veh139" type="veh_passenger" depart="200.72" departLane="best" departSpeed="max" from="228938205#0" to="573136113#3"/>
    <trip id="veh140" type="veh_passenger" depart="202.16" departLane="best" from="378882498#0" to="-894686376"/>
    <trip id="veh141" type="veh_passenger" depart="203.61" departLane="best" from="4349275#3" to="314846526#3"/>
    <trip id="veh142" type="veh_passenger" depart="205.05" departLane="best" from="-228938211#1" to="-446828203#6"/>
    <trip id="veh143" type="veh_passenger" depart="206.49" departLane="best" from="-25876174#9" to="68338878"/>
    <trip id="veh144" type="veh_passenger" depart="207.94" departLane="best" from="726197554" to="299414083#2"/>
    <trip id="veh145" type="veh_passenger" depart="209.38" departLane="best" from="-491939794#1" to="333302742"/>
    <trip id="veh146" type="veh_passenger" depart="210.83" departLane="best" from="364906269#7" to="-333302736"/>
    <trip id="veh148" type="veh_passenger" depart="213.71" departLane="best" from="448780160" to="67058516#2"/>
    <trip id="veh149" type="veh_passenger" depart="215.16" departLane="best" from="-712459548#0" to="-55448858#0"/>
    <trip id="veh150" type="veh_passenger" depart="216.60" departLane="best" departSpeed="max" from="-68235436#1" to="-279506341#2"/>
    <trip id="veh151" type="veh_passenger" depart="218.05" departLane="best" from="448483227#0" to="68339221#3"/>
    <trip id="veh153" type="veh_passenger" depart="220.94" departLane="best" from="-40623036#5" to="822509290"/>
    <trip id="veh154" type="veh_passenger" depart="222.38" departLane="best" from="62015210#0" to="920068402#1"/>
    <trip id="veh155" type="veh_passenger" depart="223.82" departLane="best" from="-475328426#1" to="68259863"/>
    <trip id="veh156" type="veh_passenger" depart="225.27" departLane="best" from="174927187#2" to="446536722#1"/>
    <trip id="veh157" type="veh_passenger" depart="226.71" departLane="best" from="1074488722#1" to="823402722"/>
    <trip id="veh158" type="veh_passenger" depart="228.16" departLane="best" from="46921079#3" to="67066410#1"/>
    <trip id="veh159" type="veh_passenger" depart="229.60" departLane="best" from="475328426#1" to="906299890"/>
    <trip id="veh160" type="veh_passenger" depart="231.04" departLane="best" from="448486280" to="28428719#6"/>
    <trip id="veh161" type="veh_passenger" depart="232.49" departLane="best" from="-67066397#2" to="67057607#0"/>
    <trip id="veh162" type="veh_passenger" depart="233.93" departLane="best" departSpeed="max" from="-4893852#2" to="4893856#1"/>
    <trip id="veh163" type="veh_passenger" depart="235.38" departLane="best" from="-24271319#8" to="1126699143#0"/>
    <trip id="veh164" type="veh_passenger" depart="236.82" departLane="best" from="448672748" to="-70817601#1"/>
    <trip id="veh165" type="veh_passenger" depart="238.26" departLane="best" from="-170928419#2" to="-47087026#2"/>
    <trip id="veh166" type="veh_passenger" depart="239.71" departLane="best" from="1029702159" to="67066412#1"/>
    <trip id="veh167" type="veh_passenger" depart="241.15" departLane="best" from="895285361#3" to="949348082#0"/>
    <trip id="veh168" type="veh_passenger" depart="242.60" departLane="best" from="390417056#3" to="-23863941"/>
    <trip id="veh169" type="veh_passenger" depart="244.04" departLane="best" from="922928757" to="28441899"/>
    <trip id="veh170" type="veh_passenger" depart="245.48" departLane="best" departSpeed="max" from="826480483#0" to="-294144575"/>
    <trip id="veh171" type="veh_passenger" depart="246.93" departLane="best" from="-906299885#0" to="-445087214"/>
    <trip id="veh172" type="veh_passenger" depart="248.37" departLane="best" from="-894686354" to="-895828587#0"/>
    <trip id="veh173" type="veh_passenger" depart="249.82" departLane="best" departSpeed="max" from="-279537927#3" to="24275269#1"/>
    <trip id="veh174" type="veh_passenger" depart="251.26" departLane="best" from="4342496#3" to="-115975858"/>
    <trip id="veh175" type="veh_passenger" depart="252.70" departLane="best" departSpeed="max" from="333302626" to="-278790909#3"/>
    <trip id="veh176" type="veh_passenger" depart="254.15" departLane="best" from="134221319#5" to="333302624#3"/>
    <trip id="veh177" type="veh_passenger" depart="255.59" departLane="best" from="-68339221#0" to="-4342510#2"/>
    <trip id="veh178" type="veh_passenger" depart="257.04" departLane="best" from="-1001524699#3" to="802927346#1"/>
    <trip id="veh179" type="veh_passenger" depart="258.48" departLane="best" from="277850637#7" to="4356086#0"/>
    <trip id="veh180" type="veh_passenger" depart="259.92" departLane="best" from="4356080#1" to="4339966#10"/>
    <trip id="veh181" type="veh_passenger" depart="261.37" departLane="best" from="1236887150#0" to="25875686#2"/>
    <trip id="veh182" type="veh_passenger" depart="262.81" departLane="best" from="43322222#1" to="124521364#2"/>
    <trip id="veh183" type="veh_passenger" depart="264.26" departLane="best" from="943504737#0" to="59549868"/>
    <trip id="veh184" type="veh_passenger" depart="265.70" departLane="best" from="4341918#8" to="-109734762"/>
    <trip id="veh185" type="veh_passenger" depart="267.14" departLane="best" from="923080183" to="23876237#1"/>
    <trip id="veh186" type="veh_passenger" depart="268.59" departLane="best" departSpeed="max" from="188727327#0" to="1074488722#1"/>
    <trip id="veh187" type="veh_passenger" depart="270.03" departLane="best" departSpeed="max" from="-329708013" to="24271319#6"/>
    <trip id="veh189" type="veh_passenger" depart="272.92" departLane="best" from="721100818" to="-40623036#7"/>
    <trip id="veh190" type="veh_passenger" depart="274.36" departLane="best" from="-895285362" to="301526431#1"/>
    <trip id="veh191" type="veh_passenger" depart="275.81" departLane="best" departSpeed="max" from="228942633#0" to="-333302649#1"/>
    <trip id="veh192" type="veh_passenger" depart="277.25" departLane="best" from="427981131" to="26254547#3"/>
    <trip id="veh193" type="veh_passenger" depart="278.70" departLane="best" from="23863950#2" to="55491358#3"/>
    <trip id="veh194" type="veh_passenger" depart="280.14" departLane="best" from="-24274726#0" to="732074518#1"/>
    <trip id="veh195" type="veh_passenger" depart="281.58" departLane="best" from="448673783" to="4341918#6"/>
    <trip id="veh196" type="veh_passenger" depart="283.03" departLane="best" from="-274833676#1" to="279506342#0"/>
    <trip id="veh197" type="veh_passenger" depart="284.47" departLane="best" from="364906269#9" to="130422163#3"/>
    <trip id="veh198" type="veh_passenger" depart="285.92" departLane="best" from="4876832#0" to="448474915"/>
    <trip id="veh199" type="veh_passenger" depart="287.36" departLane="best" departSpeed="max" from="4336982#0" to="-68339221#1"/>
    <trip id="veh200" type="veh_passenger" depart="288.80" departLane="best" from="-446827592#0" to="179432838#0"/>
    <trip id="veh201" type="veh_passenger" depart="290.25" departLane="best" from="-67066402#0" to="26492608#2"/>
    <trip id="veh202" type="veh_passenger" depart="291.69" departLane="best" departSpeed="max" from="55449411#0" to="-25876175#1"/>
    <trip id="veh203" type="veh_passenger" depart="293.14" departLane="best" from="214448798#1" to="427981131"/>
    <trip id="veh204" type="veh_passenger" depart="294.58" departLane="best" from="445087216#0" to="4341919#2"/>
    <trip id="veh205" type="veh_passenger" depart="296.02" departLane="best" departSpeed="max" from="25876175#0" to="-826463733"/>
    <trip id="veh206" type="veh_passenger" depart="297.47" departLane="best" from="428461897" to="-1126705374#2"/>
    <trip id="veh207" type="veh_passenger" depart="298.91" departLane="best" from="-445638398" to="448670131"/>
    <trip id="veh208" type="veh_passenger" depart="300.36" departLane="best" from="-279506342#3" to="-24273703#5"/>
    <trip id="veh209" type="veh_passenger" depart="301.80" departLane="best" from="4339958#1" to="-864649675#1"/>
    <trip id="veh210" type="veh_passenger" depart="303.24" departLane="best" from="274784188#0" to="-23863963#4"/>
    <trip id="veh211" type="veh_passenger" depart="304.69" departLane="best" from="-68235436#0" to="59549878#2"/>
    <trip id="veh212" type="veh_passenger" depart="306.13" departLane="best" from="24270178#5" to="4876832#5"/>
    <trip id="veh213" type="veh_passenger" depart="307.58" departLane="best" from="43330238#2" to="-935482734"/>
    <trip id="veh214" type="veh_passenger" depart="309.02" departLane="best" from="333302563#1" to="-846657919"/>
    <trip id="veh215" type="veh_passenger" depart="310.46" departLane="best" from="68343014#1" to="401633765#1"/>
    <trip id="veh216" type="veh_passenger" depart="311.91" departLane="best" from="4341918#4" to="-277850638#9"/>
    <trip id="veh217" type="veh_passenger" depart="313.35" departLane="best" from="4893856#0" to="301526431#1"/>
    <trip id="veh218" type="veh_passenger" depart="314.80" departLane="best" from="708059906#1" to="448461444"/>
    <trip id="veh219" type="veh_passenger" depart="316.24" departLane="best" from="24275272" to="-892632800#1"/>
    <trip id="veh220" type="veh_passenger" depart="317.68" departLane="best" from="68235390#0" to="-448481957#0"/>
    <trip id="veh221" type="veh_passenger" depart="319.13" departLane="best" from="448195255#0" to="28428719#6"/>
    <trip id="veh222" type="veh_passenger" depart="320.57" departLane="best" from="35573238#0" to="923724497#3"/>
    <trip id="veh224" type="veh_passenger" depart="323.46" departLane="best" departSpeed="max" from="-802115219" to="-1194029124#1"/>
    <trip id="veh225" type="veh_passenger" depart="324.90" departLane="best" from="-277850638#9" to="-370661162#0"/>
    <trip id="veh226" type="veh_passenger" depart="326.35" departLane="best" from="516954884#1" to="4341914#1"/>
    <trip id="veh227" type="veh_passenger" depart="327.79" departLane="best" from="-4340619#2" to="24274726#2"/>
    <trip id="veh228" type="veh_passenger" depart="329.24" departLane="best" departSpeed="max" from="198571126#0" to="289291033"/>
    <trip id="veh229" type="veh_passenger" depart="330.68" departLane="best" from="214450969#1" to="-4943729#2"/>
    <trip id="veh230" type="veh_passenger" depart="332.12" departLane="best" departSpeed="max" from="224709000" to="833138856#0"/>
    <trip id="veh231" type="veh_passenger" depart="333.57" departLane="best" from="314846522#4" to="4341918#5"/>
    <trip id="veh232" type="veh_passenger" depart="335.01" departLane="best" from="130639472#1" to="-1131526752#0"/>
    <trip id="veh234" type="veh_passenger" depart="337.90" departLane="best" from="56190251" to="852011490"/>
    <trip id="veh235" type="veh_passenger" depart="339.34" departLane="best" from="224708934#1" to="448472915"/>
    <trip id="veh236" type="veh_passenger" depart="340.79" departLane="best" from="278031462#0" to="-370661162#1"/>
    <trip id="veh237" type="veh_passenger" depart="342.23" departLane="best" from="-4886294#5" to="67066407"/>
    <trip id="veh238" type="veh_passenger" depart="343.68" departLane="best" from="23445115#3" to="-198571126#0"/>
    <trip id="veh239" type="veh_passenger" depart="345.12" departLane="best" from="109734762" to="4340614#5"/>
    <trip id="veh240" type="veh_passenger" depart="346.56" departLane="best" from="188727327#6" to="-4341888#10"/>
    <trip id="veh241" type="veh_passenger" depart="348.01" departLane="best" from="24274019#0" to="333302753#0"/>
    <trip id="veh242" type="veh_passenger" depart="349.45" departLane="best" from="35551747#2" to="-188727327#2"/>
    <trip id="veh243" type="veh_passenger" depart="350.90" departLane="best" from="169446044#0" to="333302581#1"/>
    <trip id="veh244" type="veh_passenger" depart="352.34" departLane="best" departSpeed="max" from="-180100238" to="179432814#0"/>
    <trip id="veh245" type="veh_passenger" depart="353.78" departLane="best" from="-333302629" to="25947383#3"/>