<?xml version="1.0" encoding="UTF-8"?>

<!-- generated on 2024-04-18 17:34:44.841919 by osmWebWizard.py v1_19_0+0000-baa66a0f364
<configuration>
    <net-file value="C:\Users\Jaime\Sumo\2024-04-18-17-34-18\osm.net.xml.gz"/>
    <ptlines-file value="C:\Users\Jaime\Sumo\2024-04-18-17-34-18\osm_ptlines.xml"/>
    <ptstops-file value="C:\Users\Jaime\Sumo\2024-04-18-17-34-18\osm_stops.add.xml"/>
    <output-file value="C:\Users\Jaime\Sumo\2024-04-18-17-34-18\osm_pt.rou.xml"/>
    <stopinfos-file value="C:\Users\Jaime\Sumo\2024-04-18-17-34-18\stopinfos.xml"/>
    <routes-file value="C:\Users\Jaime\Sumo\2024-04-18-17-34-18\vehroutes.xml"/>
    <trips-file value="C:\Users\Jaime\Sumo\2024-04-18-17-34-18\trips.trips.xml"/>
    <min-stops value="0"/>
    <extend-to-fringe value="True"/>
    <random-begin value="True"/>
    <seed value="42"/>
    <ignore-errors value="True"/>
    <vtype-prefix value="pt_"/>
    <verbose value="True"/>
</configuration>
-->

<routes xmlns:xsi="http://www.w3.org/2001/XMLSchema-instance" xsi:noNamespaceSchemaLocation="http://sumo.dlr.de/xsd/routes_file.xsd">
    <vType id="pt_bus" vClass="bus"/>
    <vType id="pt_tram" vClass="tram"/>
    <vType id="pt_train" vClass="rail"/>
    <vType id="pt_subway" vClass="rail_urban"/>
    <vType id="pt_light_rail" vClass="rail_urban"/>
    <vType id="pt_monorail" vClass="rail_urban"/>
    <vType id="pt_trolleybus" vClass="bus"/>
    <vType id="pt_minibus" vClass="bus"/>
    <vType id="pt_share_taxi" vClass="taxi"/>
    <vType id="pt_aerialway" vClass="rail_urban" length="2.5" width="2" personCapacity="4"/>
    <vType id="pt_ferry" vClass="ship"/>
    <route id="pt_train_C-1:0" color="red" edges="128439714" >
        <stop busStop="3058796840" duration="20" until="75.0"/> <!-- Santander RENFE -->
    </route>
    <route id="pt_bus_24C2:0" edges="1191691620 1192822155" >
        <stop busStop="11069774700" duration="20" until="41.0"/> <!-- Estaciones -->
    </route>
    <route id="pt_bus_N2:0" color="38,38,38" edges="333302649#0 333302649#1 333302649#2 448459881 445683838#0 333302622#0 333302622#1 333302622#4 333302622#5 333302624#0 333302624#1 333302624#2 333302624#3 448490148#2 333302632#0 333302632#3 467743167#0 467743167#1 467743167#2 448670131 716756870#0 716756870#1 716756870#2 716756870#3 45747443" >
        <stop busStop="11070319523" duration="20" until="44.0"/> <!-- General Dávila 125 -->
    </route>
    <route id="pt_bus_14:1" color="0,103,177" edges="1193829860" >
        <stop busStop="11081661262" duration="20" until="35.0"/> <!-- Los Peligros -->
    </route>
    <route id="pt_bus_13:1" color="145,127,175" edges="277990054#0 277990054#1 277990054#2 897550789 277978544#1 277978544#2 277978544#3 895834602#0 895834602#2 895834601#1 279968705#2 279968705#3 279968705#4 279968705#5 279968705#6 279968705#7 277990052#0 277990052#1 277990052#2 277990052#4 24270261 887924006" >
        <stop busStop="11073399755" duration="20" until="35.0"/> <!-- Hermanos Tonetti 6 -->
    </route>
    <route id="pt_train_C-1:1" color="red" edges="128439714" >
        <stop busStop="3058796840" duration="20" until="75.0"/> <!-- Santander RENFE -->
    </route>
    <route id="pt_bus_5C1:2" color="95,107,116" edges="1192475897 275923447#0 275923447#1 275923447#2 275923447#3 274784188#0 274784188#1 -174927187#7 -174927187#6 -174927187#5 -174927187#4 -174927187#3 -174927187#2 -174927187#1 -174927187#0 174927187#0 174927187#1 174927187#2 174927187#3 174927187#4 174927187#5 174927187#6 174927187#7 55264044#2 274784187 179433545 4339961#0 -4339961#0 1192475897" >
        <stop busStop="-11069791050" duration="20" until="76.0"/> <!-- Reina Victoria 117 -->
    </route>
    <route id="pt_bus_N1:0" color="38,38,38" edges="307899857 1192552140#1 279506341#0 279506341#1 279506341#2 923080183 278787256#0 278787256#3 278787256#4 278787256#5 935482736 276972638#0 276972638#1 276767472 920236486 -920236485#2 -920236485#1 920236485#1 920236485#2 935482735 25030088#0 25030088#1 1192822156 276972638#0 935482738 25030087#0 25030087#1 24273278 24271487#1 427178127#0 427178127#1 278782647 276767466 24273282#0 24273281#0 24273281#1 24273281#2 24273281#3 24273281#4 428461895 1193906412 277786709 276997580#0 428461894 -825122721 -825122722#3 -825122722#1 -825122722#0 -24274726#2 -24274726#1 -24274726#0 -285734889#1 -445638398 -333354553 -285734890 -55360006 -448471732 -276792879 -276972632 -109734762 -448780350#3 -448780350#2 -448780350#1 -448780350#0 -448780568#0 -445891556#2 -445891556#1 -445891556#0 333302632#0 333302632#3 467743167#0 467743167#1 467743167#2 448670131 716756870#0 716756870#1 716756870#2 716756870#3 45747443" >
        <stop busStop="-11070424002" duration="20" until="177.0"/> <!-- Barrio La Torre 123 -->
    </route>
    <route id="pt_bus_E1:1" edges="26259370#0 448670471 448670476 45747438#0 45747438#1 448673783 448673782 448672036 4886283 273938739 166235479#1 166235488#0 166235488#1 448672124 448830405 100611155#0 100611155#1 4886287 448672664#0 31910838#2 31910838#3 31910838#4 31910838#5 31910838#6 31910838#7 31910838#8 31910838#9 271100713#1 271100713#3 732086406 428461924#1 214450971 276698807 732086403 445087214 448471737#1 448471740 214450970#0 448471738#0 446828203#0 446828203#2 446828203#3 446828203#5 446828203#6 822482102#0 446828202#0 445087216#0 445087216#2 428461920 428461919 821393521 428461929#0 428461929#1 428461929#2 428461929#3 428461923#0 428461923#1 781299666 781299665 781299667 278009970 448481956 202782734#0 428461939#1 448481957#1 428461933#0 428461933#1 849436234#1 428461922#0 428461922#2 428461925 446822056#0 446822056#2 446822056#3 446822056#4 448482144 446827592#0 446827592#1 446827592#3 448482519#0 448482519#2 840970021#0 840970021#1 840970020 202782736#0 202782736#1 202782736#3 840970019#0 247661922 276538981 278009971 168961476 276698811#0 -4341888#13 -4341888#12 -4341888#11 -4341888#10 -4341888#9 -4341888#8 -4341888#7 -4341888#6 -4341888#5 -4341888#3 -4341888#2 -4341888#1 -4341888#0 841704791#1 841704790#0 841704790#1 -4337982#1 448475774 276269636#2 4847894#0 4847894#1 276269626 276487320 276792890 4337981 276487319 276487321 4337980 448475777#1 833354473 301526431#0 301526431#1 276972645 276972646 279506343 448476095 1192734407#1 842637661#0 842637661#1 842637661#2 842637661#3 842637661#4" >
        <stop busStop="1166735432" duration="20" until="42.0"/> <!-- Cuatro Caminos -->
    </route>
    <route id="pt_bus_12:0" color="136,140,22" edges="26259370#0 448670471 448670476 45747438#0 45747438#1 448673783 448673782 100611151 4336686 56190251 277791370 1194237600" >
        <stop busStop="1166735432" duration="20" until="61.0"/> <!-- Cuatro Caminos -->
    </route>
    <route id="pt_bus_6C1:0" color="0,129,49" edges="1193035759 448671503#0 448671503#1 448485413 99834812 4337168 448485614 4336688#0 299414083#1 299414083#2 166235475 -4336686 4336684 448670832#0 448670831 100611157#0 100611157#2 716756870#0 716756870#1 333302561 448195253 4880956 333302522#1 333302522#2 445891557 448490148#1 448490148#2 445891556#0 445891556#1 445891556#2 448780568#0 448780568#1 448780350#1 448780350#2 448780350#3 109734762 276972632 276792880 -276972642 -445683837#1 -25113754 -448780160 -333302651#1 -333302651#0 -434557302 -333302650#1 -333302650#0 -434557300#1 -445683838#1 -448459881 -333302649#2 -333302649#1 -333302649#0" >
        <stop busStop="11072338620" duration="20" until="69.0"/> <!-- Calvo Sotelo 1 -->
    </route>
    <route id="pt_bus_16:0" color="101,21,54" edges="4339980" >
        <stop busStop="11081089497" duration="20" until="38.0"/> <!-- Plaza de los Remedios -->
    </route>
    <route id="pt_bus_24C2:1" edges="1191691620 1192822155 -4336976#1 -4336976#0 4337779 4337780#1 299414083#1 299414083#2 166235475 -4336686 4336684 448670832#0 448670831 100611157#0 100611157#2 716756870#0 716756870#1 333302561 448195253 4880956 333302522#1 333302522#2 445891557 448490148#1 448490148#2 445891556#0 445891556#1 445891556#2 448780568#0 448780568#1 448780350#1 448780350#2 448780350#3 109734762 276972632 276792879 448471732 55360006 285734890 333354553 445638398 285734889#0 24274726#0 24274726#1 24274726#2 825122722#0 825122722#1 825122722#3 825122721 428461898 276997580#2 26256910 277786714 428461897 -24273281#4 -24273281#3 -24273281#2 -24273281#1 -24273281#0 24273280#1 278782646#0 278782646#1 427178126 427178128 24271487#0 24271487#1 364901467 922928763 922928751 65444730#1 65444730#2 -24273577#2 922928746 24273576#1 24273576#2 24273576#3 24273576#4 923074565 -25030085#0" >
        <stop busStop="11069774700" duration="20" until="75.0"/> <!-- Estaciones -->
    </route>
    <route id="pt_bus_3:1" color="254,151,7" edges="1193922378 448483691#1 448484010 448484012 380886524#0 380886524#1 781303007#0 781303007#1 291364208 276698804 363048248#0 363048248#1 448671502 1193035759 448671503#0 448671503#1 448485413 99834812 4337168 448485614 4336688#0 299414083#1 299414083#2 166235475 -4336686 4336684 448670832#0 448670831 100611157#0 100611157#2 716756870#0 716756870#1 716756870#2 716756870#3 45747443" >
        <stop busStop="11069791041" duration="20" until="83.0"/> <!-- Paseo de Pereda -->
    </route>
    <route id="pt_bus_5C2:1" color="95,107,116" edges="-279714838#0 -276538984#1 -276538984#0 -247661919#12 -247661919#11 -247661919#10 247661919#10 247661919#11 247661919#12 276538984#0 276538984#1 1194095092 279714838#1 279714838#2 1192475891 276698816 4340629 276541774#0 924753446 4340621 -4340618#2 -4340618#1 -4340618#0 -864649675#3 -864649675#2 -864649675#1 -864649675#0 4341919#0 4341919#1 4341919#2 4341919#3 4341919#4 -802928727#1 -802928727#0 275923447#1 275923447#2 275923447#3 275923446 274784187 179433545 4339961#0 -4339961#0 1192475897" >
        <stop busStop="-1524411651" duration="20" until="67.0"/> <!-- General Dávila 28 -->
    </route>
    <route id="pt_bus_LC:2" edges="4336683 448670471 448670476 45747438#0 45747438#1 448673783 448673782 448672036 4886283 273938739 166235479#1 166235488#0 166235488#1 448672124 448830405 100611155#0 100611155#1 4886287 448672664#0 31910838#2 31910838#3 31910838#4 31910838#5 31910838#6 31910838#7 31910838#8 31910838#9 271100713#1 271100713#3 732086406 428461924#1 214450971 276698807 732086403 445087214 448471737#1 448471740 214450970#0 448471738#0 446828203#0 446828203#2 446828203#3 446828203#5 446828203#6 822482102#0 446828202#0 445087216#0 445087216#2 428461920 428461919 821393521 428461929#0 428461929#1 428461929#2 428461929#3 428461923#0 428461923#1 781299666 781299665 781299667 278009970 448481956 202782734#0 428461939#1 448481957#1 428461933#0 428461933#1 849436234#1 428461922#0 428461922#2 428461925 446822056#0 446822056#2 446822056#3 446822056#4 448482144 446827592#0 446827592#1 446827592#3 448482519#0 448482519#2 840970021#0 840970021#1 840970020 202782736#0 202782736#1 202782736#3 840970019#0 247661922 276538981 278009971 168961476 276698811#0 -4341888#13 -4341888#12 -4341888#11 -4341888#10 -4341888#9 -4341888#8 -4341888#7 -4341888#6 -4341888#5 -4341888#3 -4341888#2 -4341888#1 -4341888#0 841704791#1 841704790#0 841704790#1 -4337982#1 448475774 276269636#2 4847894#0 4847894#1 276269626 276487320 276792890 4337981 276487319 276487321 4337980 448475777#1 833354473 301526431#0 301526431#1 276972645 276972646 279506343 448476095 1192734407#1 842637661#0 842637661#1 842637661#2 842637661#3 842637661#4" >
        <stop busStop="11070319553" duration="20" until="112.0"/> <!-- San Fernando -->
    </route>
    <route id="pt_bus_5C2:4" color="95,107,116" edges="-279714838#0 -276538984#1 -276538984#0 -247661919#12 -247661919#11 -247661919#10 247661919#10 247661919#11 247661919#12 276538984#0 276538984#1 1194095092 -279714838#0" >
        <stop busStop="-1524411651" duration="20" until="69.0"/> <!-- General Dávila 28 -->
    </route>
    <route id="pt_bus_LC:0" edges="842637661#4 1192734408#1 1192734408#2 -26492608#2 -26492608#0 26492610 275923452 276792907 276972681 26492603 -4341933#7 -4341933#4 -4341933#2 -4341933#1 -753484141 753484142#1 753484139 -445658159#2 -445658159#1 -445658159#0 4340624#0 4340624#1 4340624#2 276541772#0 276541772#1 276541772#2 276541772#3 276541772#5 276541772#6 276541772#7 276541772#8 276541772#9 276541772#10 276541772#11 183591286 183591289 183591292#0 183591292#1 183591292#2 1194029124#1 1119354757 276538988 -279714838#2 -279714838#1 -279714838#0 -276538984#1 -276538984#0 -247661919#12 -247661919#11 -247661919#10 -247661919#9 -247661919#6 -247661919#5 -247661919#4 -247661919#3 -247661919#1 -247661919#0 247661924 276698811#0 276698811#1 276698811#2 247661928 -840970019#0 -202782736#3 -202782736#1 -202782736#0 -840970020 -840970021#1 -840970021#0 -448482519#2 -448482519#1 -446827592#4 -446827592#2 -446827592#0 -448482144 -446822056#4 -446822056#3 -446822056#2 -446822056#0 -428461925 -428461922#2 -428461922#1 -448780161 -849436234#0 -428461933#0 -448481957#1 -448481957#0 28441338 62014094#0 62014094#1 62014095 62014091#0 62014091#1 62014091#2 62014091#3 62014091#4 62014091#5 62014091#6 62014091#7 62014091#8 791834723#0 4339991#1 4339991#2 276525448#0 276525448#1 4339980 4336985#0 4336985#1 4336985#2 448485413 99834812 4337168 448485614 4336688#0 299414083#1 299414083#2 166235475 -4336686 4336684 448670832#0 448670831 100611157#0 100611157#2 716756870#0 716756870#1 716756870#2 716756870#3 45747443" >
        <stop busStop="-11070423989" duration="20" until="59.0"/> <!-- Intercambiador del Sardinero 1 -->
    </route>
    <route id="pt_bus_LC:1" edges="842637661#4 1192734408#1 1192734408#2 -26492608#2 -26492608#0 26492610 275923452 276792907 276972681 26492603 -4341933#7 -4341933#4 -4341933#2 -4341933#1 -753484141 753484142#1 753484139 -445658159#2 -445658159#1 -445658159#0 4340624#0 4340624#1 4340624#2 276541772#0 276541772#1 276541772#2 276541772#3 276541772#5 276541772#6 276541772#7 276541772#8 276541772#9 276541772#10 276541772#11 183591286 183591289 183591292#0 183591292#1 183591292#2 1194029124#1 1119354757 276538988 -279714838#2 -279714838#1 -279714838#0 -276538984#1 -276538984#0 -247661919#12 -247661919#11 -247661919#10 -247661919#9 -247661919#6 -247661919#5 -247661919#4 -247661919#3 -247661919#1 -247661919#0 247661924 276698811#0 276698811#1 276698811#2 247661928 -840970019#0 -202782736#3 -202782736#1 -202782736#0 -840970020 -840970021#1 -840970021#0 -448482519#2 -448482519#1 -446827592#4 -446827592#2 -446827592#0 -448482144 -446822056#4 -446822056#3 -446822056#2 -446822056#0 -428461925 -428461922#2 -428461922#1 -448780161 -849436234#0 -428461933#0 -448481957#1 -448481957#0 28441338 62014094#0 62014094#1 62014095 62014091#0 62014091#1 62014091#2 62014091#3 62014091#4 62014091#5 62014091#6 62014091#7 62014091#8 791834723#0 4339991#1 4339991#2 276525448#0 276525448#1 4339980 4336985#0 4336985#1 4336985#2 448485413 99834812 4337168 448485614 4336688#0 299414083#1 299414083#2 166235475 -4336686 4336684 448670832#0 448670831 100611157#0 100611157#2 716756870#0 716756870#1 716756870#2 716756870#3 45747443" >
        <stop busStop="-11070423989" duration="20" until="89.0"/> <!-- Intercambiador del Sardinero 1 -->
    </route>
    <route id="pt_bus_5C2:3" color="95,107,116" edges="1192475897 275923447#0 275923447#1 275923447#2 275923447#3 274784188#0 274784188#1 -174927187#7 -174927187#6 -174927187#5 -174927187#4 -174927187#3 -174927187#2 -174927187#1 -174927187#0 174927187#0 174927187#1 174927187#2 174927187#3 174927187#4 174927187#5 174927187#6 174927187#7 55264044#2 274784187 179433545 4339961#0 -4339961#0 1192475897" >
        <stop busStop="-11069791050" duration="20" until="139.0"/> <!-- Reina Victoria 117 -->
    </route>
    <route id="pt_bus_1:0" color="237,28,36" edges="-68235473#1 68235471 275921321 68235435 -275921309#2 -275921309#1 -275921309#0 -906299890 -68235415#1 -68235415#0 275921308#1 275921308#2 275921308#3 -275921314 -4359021#1 -941070545 -941070546#0 -347313131#9 -347313131#8 -347313131#7 -347313131#6 -347313131#4 -347313131#3 -347313131#0 35573236 276972678#2 276972675 1192822161 35573242 35573241#0 35573241#1 895285357#1 895285358#1 895285359#0 895285359#1 895285360#1 895285361#1 895285361#2 895285361#3 895285363#1 59549868 24270080#2 24270080#3 24270080#4 59549880 434973485 35551746 35551744#3 514984265 30342726#7 30342726#8 30342726#0 30342726#1 30342726#2 346363022#0 346363022#1 26493161#1 277786711#2 277786710 276997581#0 276997546#0 -186802018 -825138144 -448471735#2 -448471735#0 -354481446#1 -354481446#0 -285734889#1 -445638398 -333354553 -285734890 -55360006 -448471732 -276792879 -276972632 -109734762 -448780350#3 -448780350#2 -448780350#1 -448780350#0 -448780568#0 -445891556#2 -445891556#1 -445891556#0 333302632#0 333302632#3 467743167#0 467743167#1 467743167#2 448670131 716756870#0 716756870#1 716756870#2 716756870#3 45747443" >
        <stop busStop="11070423980" duration="20" until="77.0"/> <!-- Consuelo Berges 16 -->
    </route>
    <route id="pt_bus_13:0" color="145,127,175" edges="887924006 277990051#1 277990051#2 277990051#3 891230150#1 894686352 47250780#1 47250780#2 364905933#0 364905933#1 364905936 364906270 364906269#0 364906269#2 364906269#3 364906269#4 364906269#5 364906269#6 364906269#7 364906269#9 894686348 276767468#0 276767468#1 276767468#2 276767470 276767471#0 276767471#1 986973234 68340111#1 1192822159 1192791287#0 986973232 68343016 276972639#0 276972639#1 276972639#2 276972636 276767473#0 24270178#0 24270178#1 24270178#2 24270178#3 24270178#4 24270178#5 24270178#6 30342726#0 30342726#1 30342726#2 346363022#0 346363022#1 26493161#1 277786711#2 277786710 276997581#0 276997546#0 -186802018 -825138144 -448471735#2 -448471735#0 -354481446#1 -354481446#0 -285734889#1 -445638398 -333354553 -285734890 -55360006 -448471732 -276792879 -276972632 -109734762 -448780350#3 -448780350#2 -448780350#1 -448780350#0 -448780568#0 -445891556#2 -445891556#1 -445891556#0 333302632#0 333302632#3 467743167#0 467743167#1 467743167#2 448670131 716756870#0 716756870#1 716756870#2 716756870#3 45747443" >
        <stop busStop="11083543465" duration="20" until="63.0"/> <!-- Cruce de Polio -->
    </route>
    <route id="pt_bus_1:2" color="237,28,36" edges="26259370#0 448670471 448670476 45747438#0 45747438#1 448673783 448673782 448672036 4886283 273938739 166235479#1 166235488#0 166235488#1 448672124 448830405 100611155#0 100611155#1 4886287 448672664#0 31910838#2 31910838#3 31910838#4 31910838#5 31910838#6 31910838#7 31910838#8 31910838#9 271100713#1 271100713#3 24274449#0 24274449#1 24274449#3 24274449#4 24274449#5 393153536#2 -24274716#1 -24274716#0 448471735#1 825138144 186802018 276997544#1 276997581#2 276997564 277786711#0 26493162#0 26493162#1 26493162#2 346363023#1 30342726#4 30342726#5 514985770 35551744#5 35551744#6 35551744#7 35551744#8 35551744#1 35551745 -434973485 59549873 24270080#0 59549874 -895285362 -895285363#0 -895285361#2 -895285361#1 -895285361#0 -895285360#0 -895285359#0 -895285358#1 -895285358#0 -895285357#0 -35573241#0 35573240 1192791286 35573233#0 35573233#1 35573234#0 35573234#1 35573234#2 35573234#3 35573234#5 35573234#7 35573234#8 35573234#11 35573234#12 35573234#13 35573234#14 35573234#15 956015403#1 4356085#1 4356085#5 4356085#6 4356085#8 4356085#9 4356085#10 4356085#11 68235406#1 68235406#2 274834493 -68235391#1 -68235391#0 4359025 274834499#2 4926624 277978547 4926580 68235473#1" >
        <stop busStop="1166735432" duration="20" until="42.0"/> <!-- Cuatro Caminos -->
    </route>
    <route id="pt_bus_5C1:1" color="95,107,116" edges="183591292#2 1194029124#1 1119354757 276538988 1192475891 1119354761 -279736632#1 -279736632#0 -276525454#20 -276525454#19 -276525454#18 -276525454#17 -276525454#16 -276525454#15 -276525454#14 -276525454#12 -276525454#11 -276525454#10 -276525454#9 -276525454#8 -276525454#7 -276525454#6 -276525454#5 -276525454#4 -276525454#3 -276525454#2 -276525454#1 -276525454#0 276525457 276525458 786167347 67066407 786167352 279758042 276269643 4341890#0 4341890#1 314846543 113718503 276269648 61885820#0 61885820#1 4337981 61885814#0 61885814#1 61885812 364903880#0 364903880#1 364903880#2 364903880#3 364903880#4 364903880#5 364903880#6 364903880#7 23875837#2 23875837#3 23875837#4 491736728#1 491736728#2 4340624#1 4340624#2 276541772#0 276541772#1 276541772#2 276541772#3 276541772#5 276541772#6 276541772#7 276541772#8 276541772#9 276541772#10 276541772#11 183591286 183591289 183591292#0 183591292#1 183591292#2" >
        <stop busStop="-11069791046" duration="20" until="97.0"/> <!-- Menéndez Pelayo 97 -->
    </route>
    <route id="pt_bus_5C1:0" color="95,107,116" edges="1194029123 333302522#1 333302522#2 445891557 448490148#1 448490148#2 445891556#0 445891556#1 445891556#2 448780568#0 448780568#1 448780350#1 448780350#2 448780350#3 109734762 276972632 276792879 448471732 55360006 285734890 333354553 445638398 285734889#0 354481446#0 354481446#1 448471735#0 24274716#0 24274716#1 -393153536#2 -24274449#5 -24274449#4 -24274449#3 -24274449#1 -24274449#0 732086406 428461924#1 214450971 276698807 732086403 445087214 448471737#1 448471740 214450970#0 448471738#0 446828203#0 446828203#2 446828203#3 446828203#5 446828203#6 822482102#0 446828202#0 445087216#0 445087216#2 428461920 428461919 821393521 428461929#0 428461929#1 428461929#2 428461929#3 428461923#0 428461923#1 781299666 781299665 781299667 278009970 448481956 202782734#0 428461939#1 448481957#1 428461933#0 428461933#1 849436234#1 428461922#0 428461922#2 428461925 446822056#0 446822056#2 446822056#3 446822056#4 448482144 446827592#0 446827592#1 446827592#3 448482519#0 448482519#2 840970021#0 840970021#1 840970020 202782736#0 202782736#1 202782736#3 840970019#0 247661922 276538981 278009971 247661926 247661919#0 247661919#1 247661919#3 247661919#4 247661919#5 247661919#6 247661919#9 247661919#10 247661919#11 247661919#12 276538984#0 276538984#1 1194095092 279714838#1 279714838#2 1192475891 276698816 4340629 276541774#0 276541774#1 276541775#1 1119354759 -1194029124#1 -1194029124#0 -183591292#1 -183591292#0 183591292#0 183591292#1 183591292#2" >
        <stop busStop="11074193757" duration="20" until="52.0"/> <!-- Camilo Alonso Vega 22 -->
    </route>
    <route id="pt_bus_18:0" color="176,232,224" edges="-130425416 -28951112 -24273906#4 -24273906#3 -24273906#1 -475328426#2 -475328426#1 -475328426#0 24273704#0 40619878#0 40619878#1 40619878#2 920236485#1 920236485#2 935482735 25030088#0 25030088#1 1192822156 276972638#0 935482738 25030087#0 25030087#1 24273278 24271487#1 427178127#0 427178127#1 278782647 276767466 24273282#0 24273281#0 24273281#1 24273281#2 24273281#3 24273281#4 428461895 1193906412 277786709 276997580#0 428461894 -825122721 -825122722#3 -825122722#1 -825122722#0 -24274726#2 -24274726#1 -24274726#0 354481446#0 354481446#1 448471735#0 24274716#0 24274716#1 -393153536#2 -24274449#5 -24274449#4 -24274449#3 -24274449#1 -24274449#0 732086406 428461924#1 214450971 276698807 732086403 445087214 448471737#1 448471740 214450970#0 448471738#0 446828203#0 446828203#2 446828203#3 446828203#5 446828203#6 822482102#0 446828202#0 445087216#0 445087216#2 428461920 428461919 821393521 428461929#0 428461929#1 428461929#2 428461929#3 428461923#0 428461923#1 781299666 781299665 781299667 278009970 448481956 202782734#0 428461939#1 448481957#1 428461933#0 428461933#1 849436234#1 428461922#0 428461922#2 428461925 446822056#0 446822056#2 446822056#3 446822056#4 -783855233 783855235#0 783855235#1 134213362#2 134213362#6 43322222#0 43322222#1 -445748622 -43322223#4 -43322223#2 -43322223#1 -43322223#0 -445748620 784251858 4342513#1 4342513#2 4342513#3 4342513#4 4342513#5 4342513#6 4342513#7 784238392 4349257 1121495402 278009969#0 278009969#1 278009969#2 448671505#0 448671505#1 67067872 448484305#1 448484305#2 1193641627" >
        <stop busStop="-11079510965" duration="20" until="56.0"/> <!-- Barrio Bolado 23 -->
    </route>
    <route id="pt_train_160:0" color="yellow" edges="308709119" >
        <stop busStop="5355552886" duration="20" until="75.0"/> <!-- Santander RENFE -->
    </route>
    <route id="pt_bus_13:2" color="145,127,175" edges="26259370#0 448670471 448670476 45747438#0 45747438#1 448673783 448673782 448672036 4886283 273938739 166235479#1 166235488#0 166235488#1 448672124 448830405 100611155#0 100611155#1 4886287 448672664#0 31910838#2 31910838#3 31910838#4 31910838#5 31910838#6 31910838#7 31910838#8 31910838#9 271100713#1 271100713#3 24274449#0 24274449#1 24274449#3 24274449#4 24274449#5 393153536#2 -24274716#1 -24274716#0 448471735#1 825138144 186802018 276997544#1 276997581#2 276997564 277786711#0 26493162#0 26493162#1 26493162#2 346363023#1 30342726#4 30342726#5 30342726#6 30342726#7 514985608#0 514985608#1 24270179#1 276767473#2 68343014#0 68343014#1 -986973232 -1192791287#0 -1192822159 -68340111#1 -68340111#0 -276767471#1 -276767471#0 68340101 68340102#0 68340102#1 68340102#2 -894686348 -364906269#9 -364906269#7 -364906269#6 -364906269#5 -364906269#4 -364906269#3 -364906269#2 -364906269#0 24270175 276767485 24270174 364905935 364905934 -47250780#2 -47250780#1 -47250780#0 891230153 24270769#1 24270769#2 895828570 198571125#1 198571125#2 198571125#3 68566496 277990052#0 277990052#1 277990052#2 277990052#4 24270261 887924006" >
        <stop busStop="1166735432" duration="20" until="43.0"/> <!-- Cuatro Caminos -->
    </route>
    <route id="pt_bus_1:1" color="237,28,36" edges="-68235473#1 68235471 275921321 68235435 -275921309#2 -275921309#1 -275921309#0 -906299890 -68235415#1 -68235415#0 275921308#1 275921308#2 275921308#3 -275921314 -4359021#1 -941070545 -941070546#0 -347313131#9 -347313131#8 -347313131#7 -347313131#6 -347313131#4 -347313131#3 -347313131#0 35573236 276972678#2 276972675 1192822161 35573242 35573241#0 35573241#1 895285357#1 895285358#1 895285359#0 895285359#1 895285360#1 895285361#1 895285361#2 895285361#3 895285363#1 59549868 24270080#2 24270080#3 24270080#4 59549880 434973485 35551746 35551744#3 514984265 30342726#7 30342726#8 30342726#0 30342726#1 30342726#2 346363022#0 346363022#1 26493161#1 277786711#2 277786710 276997581#0 276997546#0 -186802018 -825138144 -448471735#2 -448471735#0 -354481446#1 -354481446#0 -285734889#1 -445638398 -333354553 -285734890 -55360006 -448471732 -276792879 -276972632 -109734762 -448780350#3 -448780350#2 -448780350#1 -448780350#0 -448780568#0 -445891556#2 -445891556#1 -445891556#0 333302632#0 333302632#3 467743167#0 467743167#1 467743167#2 448670131 716756870#0 716756870#1 716756870#2 716756870#3 45747443" >
        <stop busStop="11070423980" duration="20" until="110.0"/> <!-- Consuelo Berges 16 -->
    </route>
    <route id="pt_bus_6C2:0" color="0,129,49" edges="333302649#0 333302649#1 333302649#2 448459881 445683838#0 434557300#1 333302650#0 333302650#1 434557302 333302651#0 333302651#1 448780160 25113754 445683837#0 276972642 333302631 448471732 55360006 285734890 333354553 445638398 285734889#0 24274726#0 24274726#1 24274726#2 825122722#0 825122722#1 825122722#3 825122721 428461898 276997580#2 26256910 277786714 428461897 -24273281#4 -24273281#3 -24273281#2 -24273281#1 -24273281#0 24273280#1 278782646#0 278782646#1 427178126 427178128 24271487#0 24271487#1 364901467 922928763 922928751 65444730#1 65444730#2 -24273577#2 922928746 24273576#1 24273576#2 24273576#3 24273576#4 923074565 -25030085#0" >
        <stop busStop="11070319523" duration="20" until="45.0"/> <!-- General Dávila 125 -->
    </route>
    <route id="pt_bus_18:1" color="176,232,224" edges="-282017499#0 -278790909#4 -278790909#3 -278790909#2 -278790909#1 -278790909#0 278790909#0 278790909#1 278790909#2 278790909#3 47251337 -47251338#2 -47251338#0 -464275889#2 -464275889#1 -464275889#0 -40623037 -130422165#5 -130422165#4 -130422165#3 -130422165#2 -130422165#1 -130422165#0 80233154#0 80233154#1 228938205#3 228938203#1 228938203#2 228938206#0 228938206#2 228938206#3 228938206#4 228938206#5 228938206#6 130422162#1 130422162#2 276972639#2 276972636 276767473#0 24270178#0 24270178#1 24270178#2 24270178#3 24270178#4 24270178#5 24270178#6 30342726#0 30342726#1 30342726#2 346363022#0 346363022#1 26493161#1 277786711#2 277786710 276997581#0 276997546#0 -186802018 -825138144 -448471735#2 24274716#0 24274716#1 -393153536#2 -24274449#5 -24274449#4 -24274449#3 -24274449#1 -24274449#0 732086406 428461924#1 214450971 276698807 732086403 445087214 448471737#1 448471740 214450970#0 448471738#0 446828203#0 446828203#2 446828203#3 446828203#5 446828203#6 822482102#0 446828202#0 445087216#0 445087216#2 428461920 428461919 821393521 428461929#0 428461929#1 428461929#2 428461929#3 428461923#0 428461923#1 781299666 781299665 781299667 278009970 448481956 202782734#0 428461939#1 448481957#1 428461933#0 428461933#1 849436234#1 428461922#0 428461922#2 428461925 446822056#0 446822056#2 446822056#3 446822056#4 -783855233 783855235#0 783855235#1 134213362#2 134213362#6 43322222#0 43322222#1 -445748622 -43322223#4 -43322223#2 -43322223#1 -43322223#0 -445748620 784251858 4342513#1 4342513#2 4342513#3 4342513#4 4342513#5 4342513#6 4342513#7 784238392 4349257 1121495402 278009969#0 278009969#1 278009969#2 448671505#0 448671505#1 67067872 448484305#1 448484305#2 1193641627" >
        <stop busStop="-11079510982" duration="20" until="57.0"/> <!-- Corbanera 57 -->
    </route>