<?xml version="1.0" encoding="UTF-8"?>

<!-- generated on 2024-07-01 13:09:05.660242 by $Id: ptlines2flows.py v1_3_1+0313-ccb31df3eb jakob.erdmann@dlr.de 2019-09-02 13:26:32 +0200 $ v1_19_0+0000-baa66a0f364
<configuration>
    <net-file value="C:\Users\Jaime\Sumo\2024-07-01-13-08-57\osm.net.xml.gz"/>
    <ptlines-file value="C:\Users\Jaime\Sumo\2024-07-01-13-08-57\osm_ptlines.xml"/>
    <ptstops-file value="C:\Users\Jaime\Sumo\2024-07-01-13-08-57\osm_stops.add.xml"/>
    <output-file value="C:\Users\Jaime\Sumo\2024-07-01-13-08-57\osm_pt.rou.xml"/>
    <stopinfos-file value="C:\Users\Jaime\Sumo\2024-07-01-13-08-57\stopinfos.xml"/>
    <routes-file value="C:\Users\Jaime\Sumo\2024-07-01-13-08-57\vehroutes.xml"/>
    <trips-file value="C:\Users\Jaime\Sumo\2024-07-01-13-08-57\trips.trips.xml"/>
    <end value="4000.0"/>
    <min-stops value="0"/>
    <extend-to-fringe value="True"/>
    <random-begin value="True"/>
    <seed value="42"/>
    <ignore-errors value="True"/>
    <vtype-prefix value="pt_"/>
    <verbose value="True"/>
</configuration>
-->

<routes xmlns:xsi="http://www.w3.org/2001/XMLSchema-instance" xsi:noNamespaceSchemaLocation="http://sumo.dlr.de/xsd/routes_file.xsd">
    <vType id="pt_bus" vClass="bus" speedFactor="0.95"/>
    <vType id="pt_tram" vClass="tram" speedFactor="1.0"/>
    <vType id="pt_train" vClass="rail"/>
    <vType id="pt_subway" vClass="rail_urban"/>
    <vType id="pt_light_rail" vClass="rail_urban"/>
    <vType id="pt_monorail" vClass="rail_urban"/>
    <vType id="pt_trolleybus" vClass="bus" speedFactor="0.95"/>
    <vType id="pt_minibus" vClass="bus" speedFactor="0.95"/>
    <vType id="pt_share_taxi" vClass="taxi" speedFactor="0.95"/>
    <vType id="pt_aerialway" vClass="rail_urban" length="2.5" width="2" personCapacity="4"/>
    <vType id="pt_ferry" vClass="ship"/>
    <trip id="0_bus_C4:0" type="pt_bus" depart="15.0" departLane="best" from="814351068#0" to="331354694#2">
        <stop busStop="8278543284" duration="30"/>
    </trip>
    <trip id="1_bus_43:0" type="pt_bus" depart="17.0" departLane="best" from="18978590#0" to="239210559#1">
        <stop busStop="8278543244" duration="30"/>
    </trip>
    <trip id="2_bus_40:0" type="pt_bus" depart="52.0" departLane="best" from="-331354694#2" to="19124158#0">
        <stop busStop="6329569392" duration="30"/>
    </trip>
    <trip id="3_bus_EA:0" type="pt_bus" depart="131.0" departLane="best" from="-331354694#2" to="239210559#1">
        <stop busStop="6329569392" duration="30"/>
    </trip>
    <trip id="4_bus_41:0" type="pt_bus" depart="133.0" departLane="best" from="-331354694#2" to="19124158#0">
        <stop busStop="6329569392" duration="30"/>
    </trip>
    <trip id="5_bus_3:0" type="pt_bus" depart="165.0" departLane="best" from="814351068#0" to="331354694#2">
        <stop busStop="8278543284" duration="30"/>
    </trip>
    <trip id="6_bus_21:0" type="pt_bus" depart="253.0" departLane="best" from="-331354694#2" to="239210559#1">
        <stop busStop="-8305729276" duration="30"/>
        <stop busStop="8294328495" duration="30"/>
    </trip>
    <trip id="7_bus_21:1" type="pt_bus" depart="303.0" departLane="best" from="814351068#0" to="331354694#2">
        <stop busStop="8278543284" duration="30"/>
    </trip>
    <trip id="8_bus_3:1" type="pt_bus" depart="383.0" departLane="best" from="-331354694#2" to="239210559#1">
        <stop busStop="8294328495" duration="30"/>
    </trip>
    <trip id="9_bus_40:1" type="pt_bus" depart="406.0" departLane="best" from="19124158#0" to="331354694#2">
        <stop busStop="6329569392" duration="30"/>
    </trip>
    <trip id="10_bus_41:1" type="pt_bus" depart="441.0" departLane="best" from="19124158#0" to="331354694#2">
        <stop busStop="6329569392" duration="30"/>
    </trip>
    <trip id="11_tram_T1:0" type="pt_tram" depart="535.0" departLane="best" from="18615546" to="-18615546">
        <stop busStop="244054578" duration="30"/>
    </trip>
</routes>
