<?xml version="1.0" encoding="UTF-8"?>

<!-- generated on 2024-07-01 13:08:12.374081 by osmWebWizard.py v1_19_0+0000-baa66a0f364
<configuration>
    <net-file value="C:\Users\Jaime\Sumo\2024-07-01-13-08-00\osm.net.xml.gz"/>
    <output-trip-file value="C:\Users\Jaime\Sumo\2024-07-01-13-08-00\osm.passenger.trips.xml"/>
    <route-file value="C:\Users\Jaime\Sumo\2024-07-01-13-08-00\osm.passenger.rou.xml"/>
    <prefix value="veh"/>
    <trip-attributes value="departLane=&quot;best&quot;"/>
    <fringe-start-attributes value="departSpeed=&quot;max&quot;"/>
    <vehicle-class value="passenger"/>
    <lanes value="True"/>
    <fringe-factor value="5"/>
    <allow-fringe.min-length value="1000.0"/>
    <via-edge-types value="highway.motorway,highway.motorway_link,highway.trunk_link,highway.primary_link,highway.secondary_link,highway.tertiary_link"/>
    <min-distance value="300.0"/>
    <min-distance.fringe value="10.0"/>
    <remove-loops value="True"/>
    <validate value="True"/>
    <end value="4000.0"/>
    <insertion-density value="12.0"/>
</configuration>
-->

<!-- generated on 2024-07-01 13:08:12 by Eclipse SUMO duarouter Version 1.19.0
<configuration xmlns:xsi="http://www.w3.org/2001/XMLSchema-instance" xsi:noNamespaceSchemaLocation="http://sumo.dlr.de/xsd/duarouterConfiguration.xsd">

    <input>
        <net-file value="C:\Users\Jaime\Sumo\2024-07-01-13-08-00\osm.net.xml.gz"/>
        <route-files value="C:\Users\Jaime\Sumo\2024-07-01-13-08-00\osm.passenger.trips.xml"/>
    </input>

    <output>
        <output-file value="C:\Users\Jaime\Sumo\2024-07-01-13-08-00\osm.passenger.trips.xml.tmp"/>
        <alternatives-output value="NUL"/>
        <write-trips value="true"/>
    </output>

    <processing>
        <remove-loops value="true"/>
    </processing>

    <time>
        <begin value="0.0"/>
        <end value="4000.0"/>
    </time>

    <report>
        <no-warnings value="true"/>
        <ignore-errors value="true"/>
        <no-step-log value="true"/>
    </report>

</configuration>
-->

<routes xmlns:xsi="http://www.w3.org/2001/XMLSchema-instance" xsi:noNamespaceSchemaLocation="http://sumo.dlr.de/xsd/routes_file.xsd">
    <vType id="veh_passenger" vClass="passenger"/>
    <trip id="veh0" type="veh_passenger" depart="0.00" departLane="best" from="28241626#0" to="-164153044#0"/>
    <trip id="veh1" type="veh_passenger" depart="3.80" departLane="best" departSpeed="max" from="136588448" to="1208782016#3"/>
    <trip id="veh3" type="veh_passenger" depart="11.41" departLane="best" from="66709364#2" to="-41589112#1"/>
    <trip id="veh5" type="veh_passenger" depart="19.01" departLane="best" from="1208749140#0" to="25317056#0"/>
    <trip id="veh6" type="veh_passenger" depart="22.81" departLane="best" departSpeed="max" from="-148384173#2" to="1208694288"/>
    <trip id="veh8" type="veh_passenger" depart="30.42" departLane="best" from="1208750014" to="340821943#0"/>
    <trip id="veh10" type="veh_passenger" depart="38.02" departLane="best" from="-623203035#0" to="426772684#1"/>
    <trip id="veh11" type="veh_passenger" depart="41.82" departLane="best" from="166310869#1" to="1024946481"/>
    <trip id="veh14" type="veh_passenger" depart="53.23" departLane="best" from="-340820167" to="499103347#0"/>
    <trip id="veh16" type="veh_passenger" depart="60.83" departLane="best" from="208403982#1" to="28463032"/>
    <trip id="veh17" type="veh_passenger" depart="64.63" departLane="best" from="627568356#0" to="359639559#3"/>
    <trip id="veh19" type="veh_passenger" depart="72.24" departLane="best" from="469939786#1" to="-22876102"/>
    <trip id="veh20" type="veh_passenger" depart="76.04" departLane="best" from="1208836551#0" to="132665161#4"/>
    <trip id="veh21" type="veh_passenger" depart="79.84" departLane="best" from="-410057553#0" to="1208848873#1"/>
    <trip id="veh22" type="veh_passenger" depart="83.64" departLane="best" from="-480225727#4" to="128515593#0"/>
    <trip id="veh23" type="veh_passenger" depart="87.44" departLane="best" from="41551073#1" to="171880892"/>
    <trip id="veh24" type="veh_passenger" depart="91.25" departLane="best" from="208403981#0" to="1208710774#2"/>
    <trip id="veh26" type="veh_passenger" depart="98.85" departLane="best" departSpeed="max" from="41589112#1" to="359617711#2"/>
    <trip id="veh27" type="veh_passenger" depart="102.65" departLane="best" from="1134551655#1" to="-480225727#5"/>
    <trip id="veh28" type="veh_passenger" depart="106.45" departLane="best" from="1124146231" to="174482533"/>
    <trip id="veh29" type="veh_passenger" depart="110.26" departLane="best" from="97874833#0" to="41551072#1"/>
    <trip id="veh31" type="veh_passenger" depart="117.86" departLane="best" from="1208836625#1" to="-174482537"/>
    <trip id="veh32" type="veh_passenger" depart="121.66" departLane="best" from="1208710774#4" to="810730254#1"/>
    <trip id="veh33" type="veh_passenger" depart="125.46" departLane="best" from="637085329#1" to="148008520"/>
    <trip id="veh34" type="veh_passenger" depart="129.27" departLane="best" from="166428798#0" to="208403981#3"/>
    <trip id="veh35" type="veh_passenger" depart="133.07" departLane="best" from="808953700#3" to="22876162#0"/>
    <trip id="veh36" type="veh_passenger" depart="136.87" departLane="best" from="128515593#0" to="120925519"/>
    <trip id="veh37" type="veh_passenger" depart="140.67" departLane="best" from="41551072#0" to="1240265144"/>
    <trip id="veh38" type="veh_passenger" depart="144.47" departLane="best" from="359617706" to="637085329#2"/>
    <trip id="veh40" type="veh_passenger" depart="152.08" departLane="best" from="-97894990#1" to="25317160#2"/>
    <trip id="veh41" type="veh_passenger" depart="155.88" departLane="best" from="-41867850" to="-22876102"/>
    <trip id="veh42" type="veh_passenger" depart="159.68" departLane="best" departSpeed="max" from="-546613943" to="410057553#0"/>
    <trip id="veh43" type="veh_passenger" depart="163.48" departLane="best" from="59464853#7" to="228448595#0"/>
    <trip id="veh45" type="veh_passenger" depart="171.09" departLane="best" from="97894989#0" to="25552470#1"/>
    <trip id="veh47" type="veh_passenger" depart="178.69" departLane="best" from="-1208769737" to="467630993#0"/>
    <trip id="veh48" type="veh_passenger" depart="182.49" departLane="best" from="432527152#1" to="-28225524#1"/>
    <trip id="veh49" type="veh_passenger" depart="186.29" departLane="best" from="128515593#3" to="41551072#1"/>
    <trip id="veh50" type="veh_passenger" depart="190.10" departLane="best" departSpeed="max" from="-59171756#1" to="22875794#3"/>
    <trip id="veh51" type="veh_passenger" depart="193.90" departLane="best" from="22876164#1" to="83339102"/>
    <trip id="veh52" type="veh_passenger" depart="197.70" departLane="best" from="637085328#3" to="1240265144"/>
    <trip id="veh53" type="veh_passenger" depart="201.50" departLane="best" from="25321139#1" to="-11503698#1"/>
    <trip id="veh55" type="veh_passenger" depart="209.11" departLane="best" departSpeed="max" from="148008515#0" to="308541550#1"/>
    <trip id="veh56" type="veh_passenger" depart="212.91" departLane="best" departSpeed="max" from="362147091" to="1014620115#1"/>
    <trip id="veh57" type="veh_passenger" depart="216.71" departLane="best" departSpeed="max" from="59464843#0" to="268152042"/>
    <trip id="veh58" type="veh_passenger" depart="220.51" departLane="best" departSpeed="max" from="-1030410636" to="-148384188#1"/>
    <trip id="veh59" type="veh_passenger" depart="224.31" departLane="best" departSpeed="max" from="-128276597#1" to="809500028#0"/>
    <trip id="veh60" type="veh_passenger" depart="228.12" departLane="best" from="65495088#1" to="623203025#1"/>
    <trip id="veh62" type="veh_passenger" depart="235.72" departLane="best" from="65495088#1" to="810730255#3"/>
    <trip id="veh63" type="veh_passenger" depart="239.52" departLane="best" from="41589112#2" to="22934853#1"/>
    <trip id="veh66" type="veh_passenger" depart="250.93" departLane="best" from="22934853#0" to="28463030"/>
    <trip id="veh68" type="veh_passenger" depart="258.53" departLane="best" from="22875804#11" to="1208710774#4"/>
    <trip id="veh69" type="veh_passenger" depart="262.33" departLane="best" from="28463164#10" to="499103347#3"/>
    <trip id="veh70" type="veh_passenger" depart="266.13" departLane="best" from="1208695689" to="148008513"/>
    <trip id="veh71" type="veh_passenger" depart="269.94" departLane="best" from="97874836#4" to="41578905"/>
    <trip id="veh72" type="veh_passenger" depart="273.74" departLane="best" departSpeed="max" from="22876102" to="25323520"/>
    <trip id="veh73" type="veh_passenger" depart="277.54" departLane="best" from="166310869#0" to="340820165#0"/>
    <trip id="veh74" type="veh_passenger" depart="281.34" departLane="best" from="1208836625#2" to="1208749785#1"/>
    <trip id="veh75" type="veh_passenger" depart="285.14" departLane="best" from="350055727#0" to="410057553#2"/>
    <trip id="veh76" type="veh_passenger" depart="288.95" departLane="best" from="1208836625#1" to="65495093"/>
    <trip id="veh77" type="veh_passenger" depart="292.75" departLane="best" from="628997828#3" to="350055727#0"/>
    <trip id="veh78" type="veh_passenger" depart="296.55" departLane="best" from="1208848873#2" to="41698387#0"/>
    <trip id="veh80" type="veh_passenger" depart="304.15" departLane="best" from="810730254#2" to="290195421"/>
    <trip id="veh81" type="veh_passenger" depart="307.96" departLane="best" from="22926588#3" to="558774248#1"/>
    <trip id="veh82" type="veh_passenger" depart="311.76" departLane="best" from="623203036" to="1208433950#1"/>
    <trip id="veh83" type="veh_passenger" depart="315.56" departLane="best" from="-45552382#2" to="22875794#1"/>
    <trip id="veh84" type="veh_passenger" depart="319.36" departLane="best" from="22875804#12" to="22876199#1"/>
    <trip id="veh85" type="veh_passenger" depart="323.16" departLane="best" from="53365296#6" to="418054541"/>
    <trip id="veh86" type="veh_passenger" depart="326.97" departLane="best" departSpeed="max" from="975724504" to="480225727#4"/>
    <trip id="veh87" type="veh_passenger" depart="330.77" departLane="best" from="225469600" to="157167532#0"/>
    <trip id="veh89" type="veh_passenger" depart="338.37" departLane="best" from="1208433950#1" to="22876090#0"/>
    <trip id="veh90" type="veh_passenger" depart="342.17" departLane="best" from="1209279884" to="808953700#3"/>
    <trip id="veh91" type="veh_passenger" depart="345.98" departLane="best" departSpeed="max" from="22876119" to="-628258191#4"/>
    <trip id="veh93" type="veh_passenger" depart="353.58" departLane="best" from="-97894990#4" to="623203035#1"/>
    <trip id="veh96" type="veh_passenger" depart="364.99" departLane="best" from="25317056#0" to="1208710811"/>
    <trip id="veh98" type="veh_passenger" depart="372.59" departLane="best" from="217407820#2" to="97874831#1"/>
    <trip id="veh99" type="veh_passenger" depart="376.39" departLane="best" from="128515593#0" to="558774248#0"/>
    <trip id="veh100" type="veh_passenger" depart="380.19" departLane="best" from="22876166#1" to="228448595#2"/>
    <trip id="veh102" type="veh_passenger" depart="387.80" departLane="best" from="1014620113#0" to="144717668#0"/>
    <trip id="veh103" type="veh_passenger" depart="391.60" departLane="best" departSpeed="max" from="-250670704#2" to="31150198"/>
    <trip id="veh104" type="veh_passenger" depart="395.40" departLane="best" from="1024946480#1" to="-841512458"/>
    <trip id="veh105" type="veh_passenger" depart="399.20" departLane="best" from="-410057553#0" to="1202754447#2"/>
    <trip id="veh108" type="veh_passenger" depart="410.61" departLane="best" departSpeed="max" from="66709364#0" to="120925519"/>
    <trip id="veh109" type="veh_passenger" depart="414.41" departLane="best" from="359618338#1" to="359639560#0"/>
    <trip id="veh110" type="veh_passenger" depart="418.21" departLane="best" from="22875794#2" to="31150198"/>
    <trip id="veh111" type="veh_passenger" depart="422.01" departLane="best" from="271263306#3" to="81062118#0"/>
    <trip id="veh112" type="veh_passenger" depart="425.82" departLane="best" from="1208710105#5" to="44720785"/>
    <trip id="veh113" type="veh_passenger" depart="429.62" departLane="best" from="41902254#0" to="148008504#1"/>
    <trip id="veh114" type="veh_passenger" depart="433.42" departLane="best" from="149668397#6" to="542574362#1"/>
    <trip id="veh115" type="veh_passenger" depart="437.22" departLane="best" from="-350055730#0" to="22876153#2"/>
    <trip id="veh116" type="veh_passenger" depart="441.02" departLane="best" from="-350055730#1" to="1208710774#5"/>
    <trip id="veh117" type="veh_passenger" depart="444.83" departLane="best" from="128515593#0" to="809516284#3"/>
    <trip id="veh118" type="veh_passenger" depart="448.63" departLane="best" from="65495088#2" to="628997828#2"/>
    <trip id="veh119" type="veh_passenger" depart="452.43" departLane="best" from="208403981#0" to="1024946481"/>
    <trip id="veh120" type="veh_passenger" depart="456.23" departLane="best" departSpeed="max" from="628161526#1" to="432527154#0"/>
    <trip id="veh121" type="veh_passenger" depart="460.03" departLane="best" departSpeed="max" from="362147091" to="97874836#0"/>
    <trip id="veh122" type="veh_passenger" depart="463.84" departLane="best" from="627566670#0" to="148008504#0"/>
    <trip id="veh123" type="veh_passenger" depart="467.64" departLane="best" from="41698387#2" to="810704180#2"/>
    <trip id="veh125" type="veh_passenger" depart="475.24" departLane="best" from="-542727908#1" to="28463164#10"/>
    <trip id="veh127" type="veh_passenger" depart="482.84" departLane="best" from="508156877#0" to="1208710105#2"/>
    <trip id="veh128" type="veh_passenger" depart="486.65" departLane="best" from="41551073#0" to="1240265144"/>
    <trip id="veh129" type="veh_passenger" depart="490.45" departLane="best" from="25317056#2" to="65495093"/>
    <trip id="veh130" type="veh_passenger" depart="494.25" departLane="best" from="628258227" to="-42068741#1"/>
    <trip id="veh131" type="veh_passenger" depart="498.05" departLane="best" from="22875804#12" to="128515591#2"/>
    <trip id="veh133" type="veh_passenger" depart="505.66" departLane="best" from="41578898#3" to="1240265144"/>
    <trip id="veh134" type="veh_passenger" depart="509.46" departLane="best" from="542617857" to="28463032"/>
    <trip id="veh135" type="veh_passenger" depart="513.26" departLane="best" from="22875804#8" to="-120925519"/>
    <trip id="veh137" type="veh_passenger" depart="520.86" departLane="best" from="-97894990#1" to="-809516285"/>
    <trip id="veh138" type="veh_passenger" depart="524.67" departLane="best" from="148386670#0" to="65495088#1"/>
    <trip id="veh139" type="veh_passenger" depart="528.47" departLane="best" departSpeed="max" from="66902829#0" to="1208710774#3"/>
    <trip id="veh140" type="veh_passenger" depart="532.27" departLane="best" from="810730255#0" to="-508156877#2"/>
    <trip id="veh142" type="veh_passenger" depart="539.87" departLane="best" from="228448595#1" to="359639560#1"/>
    <trip id="veh143" type="veh_passenger" depart="543.68" departLane="best" from="1014620113#0" to="809500028#1"/>
    <trip id="veh147" type="veh_passenger" depart="558.88" departLane="best" from="164153042#1" to="809516284#0"/>
    <trip id="veh148" type="veh_passenger" depart="562.69" departLane="best" from="623203025#1" to="628258196#0"/>
    <trip id="veh149" type="veh_passenger" depart="566.49" departLane="best" departSpeed="max" from="627362659#0" to="1240265144"/>
    <trip id="veh150" type="veh_passenger" depart="570.29" departLane="best" from="59464853#0" to="-628161526#1"/>
    <trip id="veh151" type="veh_passenger" depart="574.09" departLane="best" from="630336882#0" to="628248140#0"/>
    <trip id="veh152" type="veh_passenger" depart="577.89" departLane="best" departSpeed="max" from="1208782016#0" to="59464853#0"/>
    <trip id="veh153" type="veh_passenger" depart="581.70" departLane="best" from="22876219#0" to="148008508#2"/>
    <trip id="veh154" type="veh_passenger" depart="585.50" departLane="best" from="59466128#0" to="1208836625#2"/>
    <trip id="veh156" type="veh_passenger" depart="593.10" departLane="best" from="164153041#0" to="628258196#0"/>
    <trip id="veh158" type="veh_passenger" depart="600.70" departLane="best" departSpeed="max" from="41581950" to="350055727#0"/>
    <trip id="veh162" type="veh_passenger" depart="615.91" departLane="best" departSpeed="max" from="85681699" to="1240265144"/>
    <trip id="veh163" type="veh_passenger" depart="619.71" departLane="best" departSpeed="max" from="-546613943" to="22875794#3"/>
    <trip id="veh164" type="veh_passenger" depart="623.52" departLane="best" from="53365296#5" to="148008520"/>
    <trip id="veh165" type="veh_passenger" depart="627.32" departLane="best" departSpeed="max" from="362147085" to="25319465#0"/>
    <trip id="veh166" type="veh_passenger" depart="631.12" departLane="best" from="1238716218#0" to="441629395#0"/>
    <trip id="veh167" type="veh_passenger" depart="634.92" departLane="best" departSpeed="max" from="28463164#0" to="467630992#0"/>
    <trip id="veh168" type="veh_passenger" depart="638.72" departLane="best" from="542617857" to="41698387#1"/>
    <trip id="veh169" type="veh_passenger" depart="642.53" departLane="best" departSpeed="max" from="174495764#0" to="623203035#1"/>
    <trip id="veh170" type="veh_passenger" depart="646.33" departLane="best" from="41698387#3" to="149668397#0"/>
    <trip id="veh171" type="veh_passenger" depart="650.13" departLane="best" from="149668397#2" to="627566671#2"/>
    <trip id="veh172" type="veh_passenger" depart="653.93" departLane="best" departSpeed="max" from="512386338" to="148008505"/>
    <trip id="veh174" type="veh_passenger" depart="661.54" departLane="best" from="225469600" to="144717111#0"/>
    <trip id="veh176" type="veh_passenger" depart="669.14" departLane="best" from="66902829#3" to="359639558#2"/>
    <trip id="veh177" type="veh_passenger" depart="672.94" departLane="best" departSpeed="max" from="-1030410636" to="132665161#4"/>
    <trip id="veh178" type="veh_passenger" depart="676.74" departLane="best" from="-22876060#1" to="31150198"/>
    <trip id="veh179" type="veh_passenger" depart="680.55" departLane="best" from="22876112#0" to="1208710811"/>
    <trip id="veh180" type="veh_passenger" depart="684.35" departLane="best" from="22926588#5" to="65495088#2"/>
    <trip id="veh181" type="veh_passenger" depart="688.15" departLane="best" from="59466128#1" to="1124146229"/>
    <trip id="veh182" type="veh_passenger" depart="691.95" departLane="best" from="41578898#3" to="-25321522#1"/>
    <trip id="veh183" type="veh_passenger" depart="695.75" departLane="best" from="41551073#0" to="149668397#6"/>
    <trip id="veh184" type="veh_passenger" depart="699.55" departLane="best" from="627566670#1" to="534450623#1"/>
    <trip id="veh185" type="veh_passenger" depart="703.36" departLane="best" from="1208694833" to="-164153044#0"/>
    <trip id="veh186" type="veh_passenger" depart="707.16" departLane="best" from="1208976569#1" to="22879041#1"/>
    <trip id="veh189" type="veh_passenger" depart="718.56" departLane="best" from="1208476098#0" to="41935602"/>
    <trip id="veh190" type="veh_passenger" depart="722.37" departLane="best" departSpeed="max" from="25321043#0" to="1209202803#0"/>
    <trip id="veh192" type="veh_passenger" depart="729.97" departLane="best" from="542727908#0" to="228448595#5"/>
    <trip id="veh193" type="veh_passenger" depart="733.77" departLane="best" departSpeed="max" from="11505371" to="833485961"/>
    <trip id="veh194" type="veh_passenger" depart="737.57" departLane="best" from="268152044#1" to="-22876242"/>
    <trip id="veh195" type="veh_passenger" depart="741.38" departLane="best" from="120925519" to="627566671#2"/>
    <trip id="veh198" type="veh_passenger" depart="752.78" departLane="best" from="359639558#0" to="812798734"/>
    <trip id="veh199" type="veh_passenger" depart="756.58" departLane="best" departSpeed="max" from="66709364#0" to="359639558#0"/>
    <trip id="veh200" type="veh_passenger" depart="760.39" departLane="best" departSpeed="max" from="512386338" to="25317056#0"/>
    <trip id="veh201" type="veh_passenger" depart="764.19" departLane="best" from="627568356#0" to="28462561"/>
    <trip id="veh203" type="veh_passenger" depart="771.79" departLane="best" from="22934853#0" to="1240265144"/>
    <trip id="veh205" type="veh_passenger" depart="779.40" departLane="best" from="573653216" to="25330982#3"/>
    <trip id="veh206" type="veh_passenger" depart="783.20" departLane="best" from="41524801#0" to="128515591#0"/>
    <trip id="veh207" type="veh_passenger" depart="787.00" departLane="best" from="-386699906#0" to="132665161#2"/>
    <trip id="veh209" type="veh_passenger" depart="794.60" departLane="best" from="28463164#2" to="-915521684#0"/>
    <trip id="veh210" type="veh_passenger" depart="798.40" departLane="best" from="1208846729#1" to="41902261#1"/>
    <trip id="veh212" type="veh_passenger" depart="806.01" departLane="best" from="11503698#1" to="1208710774#0"/>
    <trip id="veh213" type="veh_passenger" depart="809.81" departLane="best" from="22875794#3" to="65495089#5"/>
    <trip id="veh214" type="veh_passenger" depart="813.61" departLane="best" from="359617705#0" to="41902265"/>
    <trip id="veh215" type="veh_passenger" depart="817.41" departLane="best" from="628997828#0" to="542725034#1"/>
    <trip id="veh217" type="veh_passenger" depart="825.02" departLane="best" from="432527152#1" to="542574362#2"/>
    <trip id="veh218" type="veh_passenger" depart="828.82" departLane="best" from="628997825#0" to="83339102"/>
    <trip id="veh219" type="veh_passenger" depart="832.62" departLane="best" from="22875794#2" to="53365296#3"/>
    <trip id="veh221" type="veh_passenger" depart="840.23" departLane="best" from="1208769737" to="1208749140#0"/>
    <trip id="veh224" type="veh_passenger" depart="851.63" departLane="best" from="228447024#0" to="1117879244#0"/>
    <trip id="veh226" type="veh_passenger" depart="859.24" departLane="best" from="411824372" to="-164153044#1"/>
    <trip id="veh228" type="veh_passenger" depart="866.84" departLane="best" departSpeed="max" from="148384173#2" to="41551072#3"/>
    <trip id="veh229" type="veh_passenger" depart="870.64" departLane="best" departSpeed="max" from="-833485961" to="22876166#0"/>
    <trip id="veh230" type="veh_passenger" depart="874.44" departLane="best" departSpeed="max" from="-241719194#1" to="174482533"/>
    <trip id="veh231" type="veh_passenger" depart="878.25" departLane="best" from="1208710774#5" to="148386670#0"/>
    <trip id="veh232" type="veh_passenger" depart="882.05" departLane="best" from="558774248#1" to="174482533"/>
    <trip id="veh233" type="veh_passenger" depart="885.85" departLane="best" from="548583709#6" to="623203025#1"/>
    <trip id="veh234" type="veh_passenger" depart="889.65" departLane="best" from="1238716214#0" to="386699906#2"/>
    <trip id="veh235" type="veh_passenger" depart="893.45" departLane="best" departSpeed="max" from="-128276597#1" to="28241626#0"/>
    <trip id="veh236" type="veh_passenger" depart="897.26" departLane="best" from="97894991" to="164153042#0"/>
    <trip id="veh238" type="veh_passenger" depart="904.86" departLane="best" from="41688617#1" to="542574362#2"/>
    <trip id="veh239" type="veh_passenger" depart="908.66" departLane="best" from="827277450" to="1208694288"/>
    <trip id="veh240" type="veh_passenger" depart="912.46" departLane="best" from="128276598#0" to="1014620115#1"/>
    <trip id="veh242" type="veh_passenger" depart="920.07" departLane="best" from="308544362#1" to="1208748937"/>
    <trip id="veh243" type="veh_passenger" depart="923.87" departLane="best" from="467630992#1" to="-542727908#1"/>
    <trip id="veh244" type="veh_passenger" depart="927.67" departLane="best" from="1124251782" to="359617709#2"/>
    <trip id="veh246" type="veh_passenger" depart="935.27" departLane="best" from="627566670#2" to="85681696#1"/>
    <trip id="veh247" type="veh_passenger" depart="939.08" departLane="best" departSpeed="max" from="-546613943" to="-164153044#0"/>
    <trip id="veh249" type="veh_passenger" depart="946.68" departLane="best" from="85681697#3" to="208403982#0"/>
    <trip id="veh250" type="veh_passenger" depart="950.48" departLane="best" from="44045306#0" to="410057553#0"/>
    <trip id="veh252" type="veh_passenger" depart="958.09" departLane="best" from="-628258191#5" to="978510842#1"/>
    <trip id="veh253" type="veh_passenger" depart="961.89" departLane="best" departSpeed="max" from="59464846#0" to="164153041#0"/>
    <trip id="veh255" type="veh_passenger" depart="969.49" departLane="best" from="25330982#0" to="-157167535#1"/>
    <trip id="veh257" type="veh_passenger" depart="977.10" departLane="best" from="-508156877#2" to="-841512458"/>
    <trip id="veh258" type="veh_passenger" depart="980.90" departLane="best" from="41551073#1" to="604266568#1"/>
    <trip id="veh259" type="veh_passenger" depart="984.70" departLane="best" from="480225727#2" to="22875804#0"/>
    <trip id="veh260" type="veh_passenger" depart="988.50" departLane="best" from="542574362#2" to="85681696#1"/>
    <trip id="veh262" type="veh_passenger" depart="996.11" departLane="best" departSpeed="max" from="28463164#0" to="22926588#5"/>
    <trip id="veh263" type="veh_passenger" depart="999.91" departLane="best" from="22876090#1" to="499103347#6"/>
    <trip id="veh264" type="veh_passenger" depart="1003.71" departLane="best" from="41688617#6" to="623203025#0"/>
    <trip id="veh265" type="veh_passenger" depart="1007.51" departLane="best" departSpeed="max" from="628161526#1" to="-41589112#1"/>
    <trip id="veh266" type="veh_passenger" depart="1011.31" departLane="best" from="65495089#0" to="1209202803#0"/>
    <trip id="veh267" type="veh_passenger" depart="1015.11" departLane="best" from="22876240#1" to="359618338#0"/>
    <trip id="veh268" type="veh_passenger" depart="1018.92" departLane="best" from="217407820#2" to="-171880895"/>
    <trip id="veh270" type="veh_passenger" depart="1026.52" departLane="best" from="1208710774#5" to="573653239#0"/>
    <trip id="veh271" type="veh_passenger" depart="1030.32" departLane="best" from="166310869#1" to="628997828#3"/>
    <trip id="veh272" type="veh_passenger" depart="1034.12" departLane="best" from="-1208711554" to="810891054#0"/>
    <trip id="veh273" type="veh_passenger" depart="1037.93" departLane="best" from="41589112#2" to="467630992#1"/>
    <trip id="veh274" type="veh_passenger" depart="1041.73" departLane="best" from="25317160#0" to="542574364#0"/>
    <trip id="veh275" type="veh_passenger" depart="1045.53" departLane="best" from="44045306#0" to="627568356#0"/>
    <trip id="veh276" type="veh_passenger" depart="1049.33" departLane="best" from="25317160#3" to="569401809#0"/>
    <trip id="veh278" type="veh_passenger" depart="1056.94" departLane="best" from="441137397#0" to="148008508#2"/>
    <trip id="veh279" type="veh_passenger" depart="1060.74" departLane="best" departSpeed="max" from="35098988#0" to="22879041#0"/>
    <trip id="veh280" type="veh_passenger" depart="1064.54" departLane="best" from="28241626#2" to="-22870674#1"/>
    <trip id="veh281" type="veh_passenger" depart="1068.34" departLane="best" from="542727908#0" to="149668397#0"/>
    <trip id="veh282" type="veh_passenger" depart="1072.14" departLane="best" from="467633340" to="128276597#1"/>
    <trip id="veh285" type="veh_passenger" depart="1083.55" departLane="best" from="28463162" to="542617857"/>
    <trip id="veh287" type="veh_passenger" depart="1091.15" departLane="best" from="25304565#2" to="469939786#1"/>
    <trip id="veh289" type="veh_passenger" depart="1098.76" departLane="best" from="144717111#0" to="-499103347#6"/>
    <trip id="veh290" type="veh_passenger" depart="1102.56" departLane="best" from="1208476098#0" to="1208836625#2"/>
    <trip id="veh291" type="veh_passenger" depart="1106.36" departLane="best" departSpeed="max" from="11505371" to="-128276598#1"/>
    <trip id="veh292" type="veh_passenger" depart="1110.16" departLane="best" from="28463030" to="128515591#0"/>
    <trip id="veh293" type="veh_passenger" depart="1113.96" departLane="best" from="899446298#2" to="28463164#10"/>
    <trip id="veh296" type="veh_passenger" depart="1125.37" departLane="best" from="630336895" to="308541550#0"/>
    <trip id="veh298" type="veh_passenger" depart="1132.97" departLane="best" from="1202754447#1" to="241719194#0"/>
    <trip id="veh299" type="veh_passenger" depart="1136.78" departLane="best" from="812798734" to="22879041#2"/>
    <trip id="veh301" type="veh_passenger" depart="1144.38" departLane="best" from="-359617709#1" to="410057553#2"/>
    <trip id="veh302" type="veh_passenger" depart="1148.18" departLane="best" departSpeed="max" from="-241719194#1" to="1014620113#0"/>
    <trip id="veh303" type="veh_passenger" depart="1151.98" departLane="best" from="308544362#0" to="148008508#0"/>
    <trip id="veh305" type="veh_passenger" depart="1159.59" departLane="best" from="558774249#1" to="359617709#2"/>
    <trip id="veh306" type="veh_passenger" depart="1163.39" departLane="best" from="59464853#5" to="1208836551#0"/>
    <trip id="veh307" type="veh_passenger" depart="1167.19" departLane="best" from="271263306#3" to="22876100"/>
    <trip id="veh308" type="veh_passenger" depart="1170.99" departLane="best" from="22876112#1" to="628248140#0"/>
    <trip id="veh309" type="veh_passenger" depart="1174.80" departLane="best" from="97874836#0" to="148008508#2"/>
    <trip id="veh310" type="veh_passenger" depart="1178.60" departLane="best" from="411824370#0" to="359617711#2"/>
    <trip id="veh311" type="veh_passenger" depart="1182.40" departLane="best" from="542617856" to="810891054#0"/>
    <trip id="veh312" type="veh_passenger" depart="1186.20" departLane="best" from="-359617710" to="-350055729"/>