<?xml version="1.0" encoding="UTF-8"?>

<!-- generated on 2024-07-01 13:08:09.625708 by osmWebWizard.py v1_19_0+0000-baa66a0f364
<configuration>
    <net-file value="C:\Users\Jaime\Sumo\2024-07-01-13-08-00\osm.net.xml.gz"/>
    <ptlines-file value="C:\Users\Jaime\Sumo\2024-07-01-13-08-00\osm_ptlines.xml"/>
    <ptstops-file value="C:\Users\Jaime\Sumo\2024-07-01-13-08-00\osm_stops.add.xml"/>
    <output-file value="C:\Users\Jaime\Sumo\2024-07-01-13-08-00\osm_pt.rou.xml"/>
    <stopinfos-file value="C:\Users\Jaime\Sumo\2024-07-01-13-08-00\stopinfos.xml"/>
    <routes-file value="C:\Users\Jaime\Sumo\2024-07-01-13-08-00\vehroutes.xml"/>
    <trips-file value="C:\Users\Jaime\Sumo\2024-07-01-13-08-00\trips.trips.xml"/>
    <end value="4000.0"/>
    <min-stops value="0"/>
    <extend-to-fringe value="True"/>
    <random-begin value="True"/>
    <seed value="42"/>
    <ignore-errors value="True"/>
    <vtype-prefix value="pt_"/>
    <verbose value="True"/>
</configuration>
-->

<routes xmlns:xsi="http://www.w3.org/2001/XMLSchema-instance" xsi:noNamespaceSchemaLocation="http://sumo.dlr.de/xsd/routes_file.xsd">
    <vType id="pt_bus" vClass="bus"/>
    <vType id="pt_tram" vClass="tram"/>
    <vType id="pt_train" vClass="rail"/>
    <vType id="pt_subway" vClass="rail_urban"/>
    <vType id="pt_light_rail" vClass="rail_urban"/>
    <vType id="pt_monorail" vClass="rail_urban"/>
    <vType id="pt_trolleybus" vClass="bus"/>
    <vType id="pt_minibus" vClass="bus"/>
    <vType id="pt_share_taxi" vClass="taxi"/>
    <vType id="pt_aerialway" vClass="rail_urban" length="2.5" width="2" personCapacity="4"/>
    <vType id="pt_ferry" vClass="ship"/>
    <route id="pt_bus_A1:1" color="187,215,95" edges="627566670#2" >
        <stop busStop="5924105585" duration="20" until="37.0"/> <!-- Ayala 2 -->
    </route>
    <route id="pt_bus_58:0" color="0,149,218" edges="148522225#0" >
        <stop busStop="7564310152" duration="20" until="61.0"/> <!-- Basurtubekoa / Iparralde -->
    </route>
    <route id="pt_bus_22:0" color="241,119,143" edges="-97894990#5 -97894990#4 -97894990#3 -97894990#2 -97894990#1 97894989#0 97894989#1 41524768 190359114#0 190359114#1 51983868" >
        <stop busStop="560674206" duration="20" until="79.0"/> <!-- Muelle de la Merced 3 -->
    </route>
    <route id="pt_bus_48:1" color="243,111,38" edges="148522225#0" >
        <stop busStop="7564310152" duration="20" until="78.0"/> <!-- Basurtubekoa / Iparralde -->
    </route>
    <route id="pt_bus_A1:0" color="187,215,95" edges="28225524#0 28225524#1 28225525#1 28225525#3 28225525#4 308541550#0 308541550#1 623205935 623203026#0 41551073#0 41551073#1 627568356#0 627566670#0 627566670#1 627566670#2" >
        <stop busStop="5885749778" duration="20" until="78.0"/> <!-- Gran Vía 2 -->
    </route>
    <route id="pt_train_C-3:0" color="blue" edges="469939538" >
        <stop busStop="4641951440" duration="20" until="52.0"/> <!-- Bilbao Abando -->
    </route>
    <route id="pt_bus_G2:1" color="247,148,29" edges="627566670#2" >
        <stop busStop="5924105585" duration="20" until="37.0"/> <!-- Ayala 2 -->
    </route>
    <route id="pt_bus_G7:1" color="164,35,143" edges="623203026#0" >
        <stop busStop="5885749778" duration="20" until="42.0"/> <!-- Gran Vía 2 -->
    </route>
    <route id="pt_bus_G4:1" color="255,221,0" edges="627566670#2" >
        <stop busStop="5924105585" duration="20" until="38.0"/> <!-- Ayala 2 -->
    </route>
    <route id="pt_bus_30:0" color="138,62,255" edges="28225524#0 28225524#1 28225525#1 28225525#3 28225525#4 308541550#0 308541550#1 623205935 627568355 -627566671#4 -627566671#3 -627566671#1 -627566671#0 -899433727 -1134551655#0 -65495088#1 -1117879244#1 -1117879244#0 -899446298#3 -899446298#1 -1117879243#1 -628248118" >
        <stop busStop="-5931082336" duration="20" until="89.0"/> <!-- Hurtado Amézaga 2 / Geltokia-Estación -->
    </route>
    <route id="pt_bus_57:0" color="100,119,129" edges="569401807#0 569401807#2 569401807#3 569401807#4 569401807#5 569401807#6 569401807#7 569401807#8 569401807#9 569401807#10 569401807#11 569401807#12 569401807#13 809516286#0 809516286#1 809516286#2 809516286#3 809516286#4 809516286#5 809516286#6 809516286#7 809516286#9 809516286#10 628856090 128276597#0 128276597#1" >
        <stop busStop="5937311360" duration="20" until="88.0"/> <!-- Basurto / Aita Donostia -->
    </route>
    <route id="pt_bus_13:0" color="238,28,37" edges="-833485961 -340820167 -623203035#0 623203036 149480972#0 149480972#1 433243243#0 433243243#1 623203027 41867845#0 22934853#0 22934853#1 1208475912 -157167540#1 -120925519 118495382 1240265144" >
        <stop busStop="-5885749749" duration="20" until="74.0"/> <!-- Deustuko zubia / Zubiarte -->
    </route>
    <route id="pt_bus_G8:1" color="2,178,146" edges="623203026#0" >
        <stop busStop="5885749778" duration="20" until="74.0"/> <!-- Gran Vía 2 -->
    </route>
    <route id="pt_bus_13:1" color="238,28,37" edges="11505371 157167547 120925519 157167540#0 157167535#0 1208710811 1208825611 41867850 441629395#0 441629395#1 41867845#0 41867845#1 41867845#2 41867845#3 41867845#4 41867845#5 41867845#6 340820165#0 623203035#0 623203035#1 833485961" >
        <stop busStop="4904248624" duration="20" until="78.0"/> <!-- Alameda Recalde 12 -->
    </route>
    <route id="pt_bus_A3250:0" edges="902623938#1" >
        <stop busStop="4904228446" duration="20" until="33.0"/> <!-- Moyua plaza (Ogasuna/Hacienda) -->
    </route>
    <route id="pt_bus_A3224:1" edges="901097952#0" >
        <stop busStop="246852179" duration="20" until="31.0"/> <!-- Moyua Plaza (Deutsche Bank) -->
    </route>
    <route id="pt_bus_G3:1" color="0,149,218" edges="41551073#1 627568356#0 1117879246 25323520 1208848873#0 1208848873#1 1208848873#2 1208848873#3 166310869#0 166310869#1 208403981#0 208403981#1 208403981#2 208403981#3 65495093 59466127 148384180#0 148384180#1 148008505 148008506#0 241719194#0 241719194#1" >
        <stop busStop="5938621860" duration="20" until="44.0"/> <!-- Gran Vía 8 -->
    </route>
    <route id="pt_bus_27:1" color="22,192,243" edges="-241719194#1 -241719194#0 319637724#1 319637723#1 319637723#2 562492752#4 562492752#5 562492752#6 562492752#7 25338420#0 25338420#1 25338420#2 225469603 1208695689 542617859#2 542617857 542617856 41688618#2 -542727908#1 -157167535#1 -157167540#1 -120925519 118495382 1240265144" >
        <stop busStop="-5938621848" duration="20" until="46.0"/> <!-- Gordóniz 39 -->
    </route>
    <route id="pt_bus_A3:0" color="244,134,108" edges="975724504 841512458 812798734 432527154#0 432527154#1 25330982#0 25330982#3 812798733 499104848 499103346#0 499103346#1 308544362#0 308544362#1 308544362#2 812523296 11503698#1 11503698#2 628258191#4 628258191#5 630336882#0 359617709#0 359617709#2" >
        <stop busStop="4205016613" duration="20" until="38.0"/> <!-- Olabeaga / Dikea -->
    </route>
    <route id="pt_bus_N1156:0" edges="136588448 508156878#0 221395586#0 221395586#1 630051590#0 655230912#3 789683698 789683700 -789683700 789683699 -789683699 655231259#1 655230913 -66902829#4 -66902829#2 -66902829#1 -66902829#0" >
        <stop busStop="7383226898" duration="20" until="152.0"/> <!-- Bilbao Intermodal 28 -->
    </route>
    <route id="pt_bus_A3224:0" edges="901097952#0 623203039#0 630336895 411824370#0 411824372 41867850 441629395#0 441629395#1 41867845#0 41867845#1 41867845#2 41867845#3 41867845#4 41867845#5 41867845#6 340820165#0 623203035#0 623203035#1 833485961" >
        <stop busStop="246852179" duration="20" until="31.0"/> <!-- Moyua Plaza (Deutsche Bank) -->
    </route>
    <route id="pt_bus_88:1" color="162,135,1" edges="810725720#1 22876164#1 628258207#0 628258196#0 628997828#0 628997828#2 628997828#3 225469600 1208976001#0 1208976001#1 810730255#0 810730255#3 810712034#0 604266568#0 604266568#1 604266568#2 359639557 359617706 28462562 386699906#0 386699906#1 386699906#2 386699963#1 467630993#0 467630993#1 467630993#2 66899431#0 66899431#1 66899431#2 41578905 777193293 569401809#0" >
        <stop busStop="7579951939" duration="20" until="38.0"/> <!-- Urrutia 1 -->
    </route>
    <route id="pt_bus_A3341:2" edges="-750217298 655231257#3 655230913 -66902829#4 -66902829#2 -66902829#1 -66902829#0" >
        <stop busStop="-7014997834" duration="20" until="1.0"/> <!-- Bilbao Intermodal 1 -->
    </route>
    <route id="pt_bus_A3250:1" edges="-833485961 -340820167 -623203035#0 623203036 149480972#0 149480972#1 433243243#0 433243243#1 433243242#0 433243242#1 -41867850 -411824372 -411824370#1 -630336895 499103345#0 499103345#1 812798732#0 812798732#1 812798732#2 902623938#0 902623938#1" >
        <stop busStop="4904228446" duration="20" until="165.0"/> <!-- Moyua plaza (Ogasuna/Hacienda) -->
    </route>
    <route id="pt_bus_A3341:0" edges="-750217298 655231257#3 655230913 -66902829#4 -66902829#2 -66902829#1 -66902829#0" >
        <stop busStop="-7014997834" duration="20" until="1.0"/> <!-- Bilbao Intermodal 1 -->
    </route>
    <route id="pt_bus_27:0" color="22,192,243" edges="11505371 157167547 120925519 157167540#0 157167535#0 542727908#0 157167532#0 623203039#0 499103345#0 499103345#1 812798732#0 812798732#1 812798732#2 902623938#0 902623938#1 22926407#0 22926407#2 22935891#0 628258227 290195421 22876126#0 22876126#1 22876126#2 208403981#0 208403981#1 208403981#2 208403981#3 65495093 59466127 148384180#0 148384180#1 148008505 148008506#0 241719194#0 241719194#1" >
        <stop busStop="4904248624" duration="20" until="126.0"/> <!-- Alameda Recalde 12 -->
    </route>
    <route id="pt_bus_A3343:0" edges="-750217298 655231257#3 655230913 -66902829#4 -66902829#2 -66902829#1 -66902829#0" >
        <stop busStop="-7014997834" duration="20" until="1.0"/> <!-- Bilbao Intermodal 1 -->
    </route>
    <route id="pt_bus_A2318:0" edges="508156878#0" >
        <stop busStop="4975099101" duration="20" until="34.0"/> <!-- Termibus (Zunzunegi) -->
    </route>
    <route id="pt_bus_85:1" color="211,140,189" edges="627362659#0 627362659#1 97894991 41524768 190359114#0 190359114#1 41524793#0 41524793#1 41524793#2 41524793#3 41524801#0 41524801#1 28225525#1 28225525#3 28225525#4 308541550#0 308541550#1 623205935 627568355 -627566671#4 -627566671#3 -627566671#1 -627566671#0 -899433727 -1134551655#0 -65495088#1 -1117879244#1 -1117879244#0 -899446298#3 -899446298#1 -1117879243#1 -628248118 65495094 166221982 59466127 148384180#0 148384180#1 148008505 148008506#0 809500027 85681696#1 81062130#0 81062130#1 85681697#2 85681697#3 85681697#4 128276596#0 128276596#1 83339102 810891054#0 66899431#0 66899431#1 66899431#2 41578905 777193293 569401809#0" >
        <stop busStop="-5931082336" duration="20" until="131.0"/> <!-- Hurtado Amézaga 2 / Geltokia-Estación -->
    </route>
    <route id="pt_bus_22:1" color="241,119,143" edges="627362659#0 628997819 628997831 28489660#0 28489660#3 628997820 628997821#0 628997817" >
        <stop busStop="8337499027" duration="20" until="353.0"/> <!-- Campo Volantín 13 -->
    </route>
    <route id="pt_bus_62:1" color="167,98,56" edges="827277449 1024946480#0 1024946480#1 41698387#0 41698387#1 41698387#2 41698387#3 1208749140#0 166428798#0 1208748937 549586716#0 627568356#0 1117879246 25323520 1208848873#0 1208848873#1 1208848873#2 1208848873#3 166310869#0 166310869#1 208403982#0 208403982#1 418054541 25317056#0 25317056#1 25317056#2 628258201#0 628258196#0 628997828#0 628997828#2 628997828#3 225469600 1208976001#0 1208976001#1 810730255#0 810730255#3 308420892#0 308420892#1 308420892#2 25317160#0 25317160#1 25317160#2 25317160#3 25317160#4 604266566" >
        <stop busStop="5887242256" duration="20" until="84.0"/> <!-- Ibáñez de Bilbao 14 -->
    </route>
    <route id="pt_train_C-3:1" color="blue" edges="469939538 34760271" >
        <stop busStop="4641951440" duration="20" until="52.0"/> <!-- Bilbao Abando -->
    </route>
    <route id="pt_bus_01:0" color="0,170,160" edges="623203026#0" >
        <stop busStop="5885749778" duration="20" until="43.0"/> <!-- Gran Vía 2 -->
    </route>
    <route id="pt_bus_18:0" color="198,23,141" edges="-833485961 -340820167 -623203035#0 623203036 149480972#0 149480972#1 433243243#0 433243243#1 433243242#0 433243242#1 -41867850 542574364#0 542574364#1 542574363#0 542574363#1 542574362#1 542574362#2 -630336882#1 -628258191#5 -628258191#4 -359617710 -11503698#1 -11503698#0 359639560#0 359639560#1 1208433872 812802850 25324365#0 812798733 28463030 499104846#0 499104846#1 359618338#0 359618338#1 359617706 28462562 386699906#0 386699906#1 386699906#2 386699963#1 467630993#0 467630993#1 467630993#2 66899431#0 66899431#1 66899431#2 41578905 777193293 569401809#0" >
        <stop busStop="-5885749749" duration="20" until="78.0"/> <!-- Deustuko zubia / Zubiarte -->
    </route>
    <route id="pt_bus_38:1" color="60,188,153" edges="809500026#0 22876162#0 22876162#2 22876162#3 -386699963#1 -386699906#3 -386699906#1 -386699906#0 359617708 359617705#0 359639558#0 359639558#1 359639558#2 359639558#3 558774249#0 558774249#1 558774249#2 499103346#0 499103346#1 308544362#0 308544362#1 308544362#2 812523296 11503698#1 11503698#2 628258191#4 628258191#5 630336882#0 359617709#0 542617856 41688618#2 -542727908#1 -157167535#1 -157167540#1 -120925519 118495382 1240265144" >
        <stop busStop="7057687695" duration="20" until="31.0"/> <!-- General Eguía / Intermodal -->
    </route>
    <route id="pt_bus_A3927:0" edges="-750217298 655231257#3 655230913 548583709#3 548583709#4 548583709#5 548583709#6 809500026#0 22876162#0 22876162#2 22876162#3 128515593#0 -128276598#1 -25319465#1 -25319465#0 149668406#1 628856089#0 628856089#1 810730254#2 808953700#2 808953700#3 149668397#0 149668397#1 149668397#2 149668397#3 149668397#6 149668397#7 149668397#8 809516284#0 809516284#1 809516284#3 809155171#0 809155171#1 148384179 628258768 28462561" >
        <stop busStop="-7014997834" duration="20" until="31.0"/> <!-- Bilbao Intermodal 1 -->
    </route>
    <route id="pt_bus_A3342:0" edges="-750217298 655231257#3 655230913 -66902829#4 -66902829#2 -66902829#1 -66902829#0" >
        <stop busStop="-7014997834" duration="20" until="31.0"/> <!-- Bilbao Intermodal 1 -->
    </route>
    <route id="pt_bus_A5:0" color="192,37,25" edges="1208748937" >
        <stop busStop="5887242255" duration="20" until="39.0"/> <!-- Mazarredo 3 -->
    </route>
    <route id="pt_bus_A3514:1" edges="86330852#0 1117879243#1 899446298#0 899446298#2 1117879244#0 1117879244#1 65495088#1 65495088#2 1134551655#1" >
        <stop busStop="5931082322" duration="20" until="85.0"/> <!-- Hurtado Amézaga 15 -->
    </route>
    <route id="pt_bus_A2318:1" edges="508156878#0 136588668" >
        <stop busStop="4975099101" duration="20" until="34.0"/> <!-- Termibus (Zunzunegi) -->
    </route>
    <route id="pt_bus_10:0" color="9,148,221" edges="623203026#0" >
        <stop busStop="5885749778" duration="20" until="52.0"/> <!-- Gran Vía 2 -->
    </route>
    <route id="pt_bus_A3514:0" edges="1134551655#1 -899433727 -1134551655#0 -65495088#1 -1117879244#1 -1117879244#0 -899446298#3 -899446298#1 -1117879243#1 -628248118" >
        <stop busStop="8356905750" duration="20" until="41.0"/> <!-- Abando (Geltokia/Estación) -->
    </route>
    <route id="pt_bus_40:0" color="254,221,3" edges="627566670#2" >
        <stop busStop="5924105585" duration="20" until="38.0"/> <!-- Ayala 2 -->
    </route>
    <route id="pt_bus_57:1" color="100,119,129" edges="512386338 810891054#0 569401810#0 569401810#1 569401810#2 569401810#3 569401810#4 569401810#5 569401810#6 569401810#7 569401810#8 569401810#9 148384188#1 41578905 777193293 569401809#0" >
        <stop busStop="5937311361" duration="20" until="110.0"/> <!-- Basurto / Briñas -->
    </route>
    <route id="pt_bus_G6:1" color="238,28,37" edges="41551073#1 627568356#0 1117879246 25323520 1208848873#0 1208848873#1 1208848873#2 1208848873#3 166310869#0 166310869#1 208403981#0 208403981#1 208403981#2 208403981#3 65495093 59466127 148384180#0 148384180#1 148008505 148008506#0 809500027 85681696#1 81062130#0 81062130#1 85681697#2 85681697#3 85681697#4 128276596#0 128276596#1 83339102 810891054#0 66899431#0 66899431#1 66899431#2 41578905 777193293 569401809#0" >
        <stop busStop="5938621860" duration="20" until="75.0"/> <!-- Gran Vía 8 -->
    </route>
    <route id="pt_bus_A3414:0" edges="221180470#1 350055727#0 350055727#1 -350055730#1 -350055730#0 499104845 25321522#0 25321522#1 558774249#2 499103346#0 499103346#1 308544362#0 308544362#1 308544362#2 812523296 11503698#1 11503698#2 -359617710 -11503698#1 -11503698#0" >
        <stop busStop="-4904228447" duration="20" until="187.0"/> <!-- Gran Vía 79 (Ecuador) -->
    </route>
    <route id="pt_bus_A3926:0" edges="-750217298 655231257#3 655230913 548583709#3 548583709#4 548583709#5 548583709#6 809500026#0 22876162#0 22876162#2 22876162#3 128515593#0 -128276598#1 -25319465#1 -25319465#0 149668406#1 628856089#0 628856089#1 810730254#2 808953700#2 808953700#3 149668397#0 149668397#1 149668397#2 149668397#3 149668397#6 149668397#7 149668397#8 809516284#0 809516284#1 809516284#3 809155171#0 809155171#1 148384179 628258768 28462561" >
        <stop busStop="-7014997834" duration="20" until="1.0"/> <!-- Bilbao Intermodal 1 -->
    </route>
    <route id="pt_bus_A0651:1" edges="136588448 508156878#0 221395586#0 221395586#1 630051590#0 655230912#3 750217298" >
        <stop busStop="7014997834" duration="20" until="163.0"/> <!-- Bilbao Intermodal 1 -->
    </route>
    <route id="pt_bus_A4:1" color="126,107,189" edges="978510842#1 22879041#0 22879041#1 22879041#2" >
        <stop busStop="5930304562" duration="20" until="38.0"/> <!-- General Eraso / Clínica IMQ -->
    </route>
    <route id="pt_bus_72:1" color="146,42,51" edges="628997833#5" >
        <stop busStop="5938621863" duration="20" until="31.0"/> <!-- Castaños / Funikularra -->
    </route>
    <route id="pt_bus_A3:1" color="244,134,108" edges="902623938#0 902623938#1 22926407#0 22926407#2 628258186#0 628258186#1 1124146230 623203038#0 623203038#1 623203038#2 901097952#0 623203039#0 499103345#0 499103345#1 1124146231 -359617709#3 -359617709#1 -630336882#1 -628258191#5 -628258191#4 -359617710 -11503698#1 -11503698#0 359639560#0 359639560#1 1208433872 812802850 28241626#0 28241626#1 28241626#2 171880899 432527155 40332658 -841512458 -975724504" >
        <stop busStop="246852183" duration="20" until="35.0"/> <!-- Moyúa 4 -->
    </route>
    <route id="pt_bus_A3927:1" edges="362147091 65495094 166221982 59466127 148384180#0 148384180#1 148008505 148008506#0 809500027 85681696#1 81062130#0 81062130#1 85681697#2 85681697#3 85681697#4 128276596#0 128276596#1 25319465#0 25319465#1 128276598#0 148386670#0 128515591#0 128515591#1 128515591#2 44720786 128515595 359617711#0 359617711#2 221395587#0 221395587#1 573653234 573653239#0 573653239#1 59171753 221395586#0 221395586#1 630051590#0 655230912#3 750217298" >
        <stop busStop="5946092215" duration="20" until="51.0"/> <!-- Autonomía 4 -->
    </route>
    <route id="pt_bus_48:0" color="243,111,38" edges="11505371 157167547 120925519 157167540#0 157167535#0 542727908#0 157167532#0 623203039#0 499103345#0 499103345#1 1124146231 -359617709#3 -359617709#1 -630336882#1 -628258191#5 -628258191#4 -359617710 -11503698#1 -11503698#0 359639560#0 359639560#1 1208433872 812802850 25324365#0 812798733 28463030 499104846#0 499104846#1 359618338#0 359618338#1 359617706 28462562 386699906#0 386699906#1 386699906#2 386699963#1 467630993#0 467630993#1 467630993#2 66899431#0 66899431#1 66899431#2 41578905 777193293 569401809#0" >
        <stop busStop="4904248624" duration="20" until="158.0"/> <!-- Alameda Recalde 12 -->
    </route>
    <route id="pt_bus_A4:0" color="126,107,189" edges="534450623#0 534450623#1 628161527#0 42068741#1 42068741#2 31150198" >
        <stop busStop="5930304563" duration="20" until="40.0"/> <!-- Luis Power 4 / Kiroldegia -->
    </route>
    <route id="pt_bus_A17:4" color="187,92,255" edges="136588448 508156878#0 221395586#0 221395586#1 630051590#0 655230912#3 750217298" >
        <stop busStop="7014997834" duration="20" until="156.0"/> <!-- Bilbao Intermodal 1 -->
    </route>
    <route id="pt_bus_A3923:5" edges="-750217298 655231257#3 655230913 548583709#3 548583709#4 548583709#5 548583709#6 809500026#0 22876162#0 22876162#2 22876162#3 128515593#0 -128276598#1 -25319465#1 -25319465#0 149668406#1 628856089#0 628856089#1 810730254#2 808953700#2 808953700#3 149668397#0 149668397#1 149668397#2 149668397#3 149668397#6 149668397#7 149668397#8 809516284#0 809516284#1 809516284#3 809155171#0 809155171#1 148384179 628258768 28462561" >
        <stop busStop="-7014997834" duration="20" until="1.0"/> <!-- Bilbao Intermodal 1 -->
    </route>
    <route id="pt_bus_A3223:1" edges="627566670#2" >
        <stop busStop="5924105585" duration="20" until="37.0"/> <!-- Ayala 2 -->
    </route>
    <route id="pt_bus_38:0" color="60,188,153" edges="11505371 157167547 120925519 157167540#0 157167535#0 542727908#0 157167532#0 623203039#0 499103345#0 499103345#1 1124146231 -359617709#3 -359617709#1 -630336882#1 -628258191#5 -628258191#4 -359617710 -11503698#1 -11503698#0 359639560#0 359639560#1 1208433872 812802850 25324365#0 812798733 28463030 499104846#0 499104846#1 359618338#0 25317160#2 25317160#3 25317160#4 604266566 810704180#1 810704180#2 221395587#0 221395587#1 573653234 573653239#0 573653239#1 59171753 221395586#0 221395586#1 630051590#0 271263306#1 271263306#2 271263306#3 548583709#3 548583709#4 548583709#5 548583709#6" >
        <stop busStop="4904248624" duration="20" until="97.0"/> <!-- Alameda Recalde 12 -->
    </route>
    <route id="pt_bus_76:2" color="179,201,25" edges="628258227 290195421 22876126#0 22876126#1 22876126#2 208403981#0 208403981#1 208403981#2 208403981#3 65495093 628258768 28462561" >
        <stop busStop="5931139373" duration="20" until="35.0"/> <!-- Elcano 9 -->
    </route>
    <route id="pt_bus_A0651:0" edges="-750217298 655231257#3 655230913 548583709#3 548583709#4 548583709#5 548583709#6 809500026#0 508156877#0 755593569#1 755593569#2 221395587#0 221395587#1 573653234 573653239#0 573653239#1 499104843 136588668" >
        <stop busStop="-7014997834" duration="20" until="31.0"/> <!-- Bilbao Intermodal 1 -->
    </route>
    <route id="pt_bus_A17:5" color="187,92,255" edges="136588448 508156878#0 221395586#0 221395586#1 630051590#0 655230912#3 750217298" >
        <stop busStop="7014997834" duration="20" until="189.0"/> <!-- Bilbao Intermodal 1 -->
    </route>
    <route id="pt_bus_A3414:1" edges="11505371 157167547 120925519 157167540#0 157167535#0 542727908#0 157167532#0 623203039#0 499103345#0 499103345#1 1124146231 -359617709#3 -359617709#1 -630336882#1 -628258191#5 -628258191#4 -359617710 -11503698#1 -11503698#0 359639560#0 359639560#1 1208433872 812802850 25324365#0 812798733 28463030 -25321522#1 -25321522#0 221180470#0 221180470#1" >
        <stop busStop="4904248624" duration="20" until="88.0"/> <!-- Alameda Recalde 12 -->
    </route>
    <route id="pt_bus_76:0" color="179,201,25" edges="362147091 59466128#0 59466128#1 65495089#0 148384173#2 80804012 80804011 159085839 159085836 45552382#0 45552382#1 22926407#2 22935891#0" >
        <stop busStop="5931139350" duration="20" until="58.0"/> <!-- Alameda San Mamés 8 -->
    </route>
    <route id="pt_bus_85:0" color="211,140,189" edges="569401807#0 809516286#5 51983868" >
        <stop busStop="5937311360" duration="20" until="339.0"/> <!-- Basurto / Aita Donostia -->
    </route>
    <route id="pt_bus_76:3" color="179,201,25" edges="628258227 290195421 22876126#0 22876126#1 22876126#2 208403981#0 208403981#1 208403981#2 208403981#3 65495093 628258768 28462561" >
        <stop busStop="5931139373" duration="20" until="34.0"/> <!-- Elcano 9 -->
    </route>
    <route id="pt_bus_G3:0" color="0,149,218" edges="-241719194#1 -241719194#0 319637724#1 319637723#1 319637723#2 562492752#4 562492752#5 562492752#6 562492752#7 25338420#0 25338420#1 25338420#2 225469603 1208694990 96481628#0 96481628#1 96481628#2 96481628#4 22926588#0 22926588#1 -41578898#2 -896981590#1 41551073#1" >
        <stop busStop="-5938621848" duration="20" until="48.0"/> <!-- Gordóniz 39 -->
    </route>
    <route id="pt_train_Intercity_-_00283:0" edges="469939534" >
        <stop busStop="4641951435" duration="20" until="55.0"/> <!-- Abando Indalecio Prieto -->
    </route>
    <route id="pt_bus_A17:2" color="187,92,255" edges="-750217298 750217298 -750217298 655231257#3 655230913 548583709#3 548583709#4 548583709#5 548583709#6 809500026#0 508156877#0 755593569#1 755593569#2 221395587#0 221395587#1 573653234 573653239#0 573653239#1 499104843 136588668" >
        <stop busStop="-7014997834" duration="20" until="1.0"/> <!-- Bilbao Intermodal 1 -->
    </route>
    <route id="pt_bus_A17:3" color="187,92,255" edges="-750217298 750217298 -750217298 655231257#3 655230913 548583709#3 548583709#4 548583709#5 548583709#6 809500026#0 508156877#0 755593569#1 755593569#2 221395587#0 221395587#1 573653234 573653239#0 573653239#1 499104843 136588668" >
        <stop busStop="-7014997834" duration="20" until="1.0"/> <!-- Bilbao Intermodal 1 -->
    </route>
    <route id="pt_bus_A17:0" color="187,92,255" edges="-750217298 750217298 -750217298 655231257#3 655230913 548583709#3 548583709#4 548583709#5 548583709#6 809500026#0 508156877#0 755593569#1 755593569#2 221395587#0 221395587#1 573653234 573653239#0 573653239#1 499104843 136588668" >
        <stop busStop="-7014997834" duration="20" until="31.0"/> <!-- Bilbao Intermodal 1 -->
    </route>
    <route id="pt_bus_A17:6" color="187,92,255" edges="136588448 508156878#0 221395586#0 221395586#1 630051590#0 655230912#3 750217298" >
        <stop busStop="7014997834" duration="20" until="220.0"/> <!-- Bilbao Intermodal 1 -->
    </route>
    <route id="pt_bus_A3923:1" edges="362147091 65495094 166221982 59466127 148384180#0 148384180#1 148008505 148008506#0 809500027 85681696#1 81062130#0 81062130#1 85681697#2 85681697#3 85681697#4 128276596#0 128276596#1 25319465#0 25319465#1 128276598#0 148386670#0 128515591#0 128515591#1 128515591#2 44720786 128515595 359617711#0 359617711#2 221395587#0 221395587#1 573653234 573653239#0 573653239#1 59171753 221395586#0 221395586#1 630051590#0 655230912#3 750217298" >
        <stop busStop="5946092215" duration="20" until="61.0"/> <!-- Autonomía 4 -->
    </route>
    <route id="pt_bus_A3923:3" edges="362147091 65495094 166221982 59466127 148384180#0 148384180#1 148008505 148008506#0 809500027 85681696#1 81062130#0 81062130#1 85681697#2 85681697#3 85681697#4 128276596#0 128276596#1 25319465#0 25319465#1 128276598#0 148386670#0 128515591#0 128515591#1 128515591#2 44720786 128515595 359617711#0 359617711#2 221395587#0 221395587#1 573653234 573653239#0 573653239#1 59171753 221395586#0 221395586#1 630051590#0 655230912#3 750217298" >
        <stop busStop="5946092215" duration="20" until="93.0"/> <!-- Autonomía 4 -->
    </route>
    <route id="pt_bus_76:1" color="179,201,25" edges="362147091 59466128#0 59466128#1 65495089#0 148384173#2 80804012 80804011 159085839 159085836 45552382#0 45552382#1 22926407#2 22935891#0" >
        <stop busStop="5931139350" duration="20" until="90.0"/> <!-- Alameda San Mamés 8 -->
    </route>
    <route id="pt_bus_A3930:1" edges="630051593 269056662#1 269056662#2 630051590#0 271263306#1 271263306#2 271263306#3 -66902829#4 -66902829#2 -66902829#1 -66902829#0" >
        <stop busStop="5950051630" duration="20" until="58.0"/> <!-- Termibus (EITB) -->
    </route>
    <route id="pt_bus_28:1" color="140,198,63" edges="66902829#0 66902829#2 628997817" >
        <stop busStop="7569029918" duration="20" until="335.0"/> <!-- Gurtubay / Ospitalea -->
    </route>
    <route id="pt_bus_A3923:0" edges="-750217298 655231257#3 655230913 548583709#3 548583709#4 548583709#5 548583709#6 809500026#0 22876162#0 22876162#2 22876162#3 128515593#0 -128276598#1 -25319465#1 -25319465#0 149668406#1 628856089#0 628856089#1 810730254#2 808953700#2 808953700#3 149668397#0 149668397#1 149668397#2 149668397#3 149668397#6 149668397#7 149668397#8 809516284#0 809516284#1 809516284#3 809155171#0 809155171#1 148384179 628258768 28462561" >
        <stop busStop="-7014997834" duration="20" until="31.0"/> <!-- Bilbao Intermodal 1 -->
    </route>
    <route id="pt_bus_A2153:1" edges="411824370#0 411824372 41867850 441629395#0 441629395#1 41867845#0 41867845#1 41867845#2 41867845#3 41867845#4 41867845#5 41867845#6 340820165#0 623203035#0 623203035#1 833485961" >
        <stop busStop="3015894287" duration="20" until="35.0"/> <!-- San Jose plaza (Elcano 5) -->
    </route>
    <route id="pt_bus_31:0" edges="136588448 508156878#0 221395586#0 221395586#1 630051590#0 655230912#3 750217298" >
        <stop busStop="7014997834" duration="20" until="147.0"/> <!-- Bilbao Intermodal 1 -->
    </route>
    <route id="pt_bus_A3930:0" edges="136588448 508156878#0 221395586#0 221395586#1 630051590#0 59171756#0 630051593" >
        <stop busStop="5950051630" duration="20" until="185.0"/> <!-- Termibus (EITB) -->
    </route>
    <route id="pt_bus_56:1" color="92,45,145" edges="812523296 812523296 51983868" >
        <stop busStop="7579822647" duration="20" until="35.0"/> <!-- Gran Vía 85 -->
    </route>
    <route id="pt_bus_A17:1" color="187,92,255" edges="-750217298 750217298 -750217298 655231257#3 655230913 548583709#3 548583709#4 548583709#5 548583709#6 809500026#0 508156877#0 755593569#1 755593569#2 221395587#0 221395587#1 573653234 573653239#0 573653239#1 499104843 136588668" >
        <stop busStop="-7014997834" duration="20" until="31.0"/> <!-- Bilbao Intermodal 1 -->
    </route>