<?xml version="1.0" encoding="UTF-8"?>

<!-- generated on 2024-07-01 13:08:05 by Eclipse SUMO netconvert Version 1.19.0
<configuration xmlns:xsi="http://www.w3.org/2001/XMLSchema-instance" xsi:noNamespaceSchemaLocation="http://sumo.dlr.de/xsd/netconvertConfiguration.xsd">

    <input>
        <type-files value="${SUMO_HOME}/data/typemap/osmNetconvert.typ.xml,${SUMO_HOME}/data/typemap/osmNetconvertAerialway.typ.xml"/>
        <osm-files value="osm_bbox.osm.xml.gz"/>
    </input>

    <output>
        <output-file value="osm.net.xml.gz"/>
        <output.street-names value="true"/>
        <output.original-names value="true"/>
        <ptstop-output value="osm_stops.add.xml"/>
        <ptline-output value="osm_ptlines.xml"/>
    </output>

    <projection>
        <proj.utm value="true"/>
    </projection>

    <processing>
        <geometry.remove value="true"/>
        <roundabouts.guess value="true"/>
    </processing>

    <tls_building>
        <tls.discard-simple value="true"/>
        <tls.join value="true"/>
        <tls.guess-signals value="true"/>
        <tls.default-type value="actuated"/>
    </tls_building>

    <ramp_guessing>
        <ramps.guess value="true"/>
    </ramp_guessing>

    <junctions>
        <junctions.join value="true"/>
        <junctions.corner-detail value="5"/>
    </junctions>

    <railway>
        <railway.topology.repair value="true"/>
    </railway>

</configuration>
-->

<additional xmlns:xsi="http://www.w3.org/2001/XMLSchema-instance" xsi:noNamespaceSchemaLocation="http://sumo.dlr.de/xsd/additional_file.xsd">
    <busStop id="-3271221736" name="Indautxu" lane="-262052936#3_0" startPos="6.42" endPos="206.42" friendlyPos="true">
        <access lane="448047545_0" pos="0.00" length="1.71" friendlyPos="1"/>
        <access lane="592141508#1_0" pos="46.38" length="4.86" friendlyPos="1"/>
        <access lane="628997828#3_0" pos="53.14" length="5.19" friendlyPos="1"/>
        <access lane="862809052#0_0" pos="0.20" length="4.43" friendlyPos="1"/>
        <access lane="862809052#1_0" pos="0.00" length="1.46" friendlyPos="1"/>
    </busStop>
    <busStop id="-4411849558" name="Moyua" lane="-262052936#2_0" startPos="6.14" endPos="206.14" friendlyPos="true">
        <access lane="-1208711554_0" pos="101.23" length="8.26" friendlyPos="1"/>
        <access lane="-41578898#5_0" pos="0.00" length="8.86" friendlyPos="1"/>
        <access lane="1208711554_0" pos="0.00" length="10.04" friendlyPos="1"/>
        <access lane="41578898#5_0" pos="52.68" length="10.54" friendlyPos="1"/>
        <access lane="418997501#2_0" pos="0.00" length="7.49" friendlyPos="1"/>
    </busStop>
    <busStop id="-4432846368" name="Guggenheim" lane="-445947753#0_0" startPos="6.14" endPos="31.14" friendlyPos="true">
        <access lane="174088368#0_0" pos="0.15" length="34.94" friendlyPos="1"/>
        <access lane="174088368#2_0" pos="0.00" length="35.57" friendlyPos="1"/>
        <access lane="41902261#1_0" pos="141.71" length="10.01" friendlyPos="1"/>
        <access lane="637085328#0_0" pos="16.44" length="40.87" friendlyPos="1"/>
        <access lane="637085328#1_0" pos="20.15" length="15.11" friendlyPos="1"/>
    </busStop>
    <busStop id="-4432854208" name="Abandoibarra" lane="-445947753#3_0" startPos="133.88" endPos="158.88" friendlyPos="true">
        <access lane="1208781882#1_0" pos="22.70" length="25.97" friendlyPos="1"/>
        <access lane="1208781882#2_0" pos="0.00" length="24.79" friendlyPos="1"/>
        <access lane="1208782016#1_0" pos="13.87" length="10.05" friendlyPos="1"/>
        <access lane="1208782274#8_0" pos="46.92" length="23.96" friendlyPos="1"/>
        <access lane="948481858_0" pos="14.47" length="13.94" friendlyPos="1"/>
    </busStop>
    <busStop id="-4432868864" name="Sabino Arana" lane="-1026672489#2_0" startPos="86.07" endPos="111.07" friendlyPos="true">
        <access lane="1262290394#1_0" pos="68.69" length="12.07" friendlyPos="1"/>
        <access lane="499104846#0_0" pos="48.01" length="26.57" friendlyPos="1"/>
        <access lane="499104846#1_0" pos="10.77" length="11.98" friendlyPos="1"/>
        <access lane="569403520#1_0" pos="0.20" length="20.08" friendlyPos="1"/>
        <access lane="569403520#2_0" pos="0.00" length="20.36" friendlyPos="1"/>
    </busStop>
    <busStop id="-4432868865" name="Sabino Arana" lane="-1026672488#2_0" startPos="87.08" endPos="112.08" friendlyPos="true">
        <access lane="1262290394#1_0" pos="68.69" length="8.47" friendlyPos="1"/>
        <access lane="499104846#0_0" pos="48.01" length="29.28" friendlyPos="1"/>
        <access lane="499104846#1_0" pos="11.09" length="16.04" friendlyPos="1"/>
        <access lane="569403520#1_0" pos="0.00" length="20.75" friendlyPos="1"/>
        <access lane="569403520#2_0" pos="0.00" length="22.29" friendlyPos="1"/>
    </busStop>
    <busStop id="-4641951440" name="Bilbao Abando" lane="-469939538_0" startPos="0.00" endPos="181.68" friendlyPos="true">
        <access lane="469939786#0_0" pos="9.62" length="13.91" friendlyPos="1"/>
        <access lane="469939786#1_0" pos="4.01" length="3.30" friendlyPos="1"/>
        <access lane="469939786#2_0" pos="0.00" length="25.16" friendlyPos="1"/>
        <access lane="496284682_0" pos="0.00" length="12.57" friendlyPos="1"/>
        <access lane="496284683_0" pos="0.00" length="22.63" friendlyPos="1"/>
    </busStop>
    <busStop id="-4813215918" name="Indautxu" lane="-448200753#2_0" startPos="8.75" endPos="208.75" friendlyPos="true">
        <access lane="448047535_0" pos="0.00" length="2.89" friendlyPos="1"/>
        <access lane="592141508#1_0" pos="46.38" length="4.69" friendlyPos="1"/>
        <access lane="628997828#3_0" pos="52.59" length="0.25" friendlyPos="1"/>
        <access lane="862809052#0_0" pos="0.00" length="0.30" friendlyPos="1"/>
        <access lane="862809054_0" pos="0.20" length="5.24" friendlyPos="1"/>
    </busStop>
    <busStop id="-4813216425" name="Moyua" lane="-448200753#2_0" startPos="763.39" endPos="963.39" friendlyPos="true">
        <access lane="-1208711554_0" pos="101.23" length="11.00" friendlyPos="1"/>
        <access lane="-41578898#5_0" pos="0.00" length="7.76" friendlyPos="1"/>
        <access lane="1208711554_0" pos="0.00" length="10.34" friendlyPos="1"/>
        <access lane="41578898#5_0" pos="52.68" length="6.80" friendlyPos="1"/>
        <access lane="418997501#1_0" pos="68.46" length="9.50" friendlyPos="1"/>
    </busStop>
    <busStop id="-4904228447" name="Gran Vía 79 (Ecuador)" lane="-359617710_0" startPos="98.61" endPos="113.61" friendlyPos="true" lines="A3414"/>
    <busStop id="-5020348125" name="La Casilla" lane="-628872388#0_0" startPos="1.87" endPos="26.87" friendlyPos="true">
        <access lane="1219360158#1_0" pos="0.20" length="40.31" friendlyPos="1"/>
        <access lane="149668397#1_0" pos="10.68" length="28.32" friendlyPos="1"/>
        <access lane="149668397#2_0" pos="7.74" length="13.84" friendlyPos="1"/>
        <access lane="35134164_0" pos="0.00" length="26.42" friendlyPos="1"/>
        <access lane="85681697#3_0" pos="24.03" length="9.19" friendlyPos="1"/>
    </busStop>
    <busStop id="-517795570" name="Museo plaza" lane="-41867850_0" startPos="0.00" endPos="15.00" friendlyPos="true" lines="A2153 A3223"/>
    <busStop id="-5359690881" name="Pío Baroja" lane="-445937112#0_0" startPos="0.04" endPos="25.04" friendlyPos="true">
        <access lane="1018373280#0_0" pos="0.00" length="23.83" friendlyPos="1"/>
        <access lane="28463164#4_0" pos="28.94" length="20.29" friendlyPos="1"/>
        <access lane="28463164#5_0" pos="0.00" length="17.78" friendlyPos="1"/>
        <access lane="432389959#7_0" pos="13.18" length="6.99" friendlyPos="1"/>
        <access lane="8481762#9_0" pos="12.98" length="18.01" friendlyPos="1"/>
    </busStop>
    <busStop id="-5359690882" name="Pío Baroja" lane="-445937962#0_0" startPos="265.23" endPos="290.23" friendlyPos="true">
        <access lane="22876233_0" pos="72.45" length="20.22" friendlyPos="1"/>
        <access lane="28463164#4_0" pos="28.94" length="16.48" friendlyPos="1"/>
        <access lane="28463164#5_0" pos="0.00" length="12.50" friendlyPos="1"/>
        <access lane="432389959#7_0" pos="12.71" length="12.22" friendlyPos="1"/>
        <access lane="8481762#9_0" pos="12.53" length="23.24" friendlyPos="1"/>
    </busStop>
    <busStop id="-5476063792" name="San Mamés" lane="-1026672485#3_0" startPos="0.70" endPos="25.70" friendlyPos="true">
        <access lane="573653242#0_0" pos="73.18" length="7.58" friendlyPos="1"/>
        <access lane="886328980_0" pos="0.00" length="6.56" friendlyPos="1"/>
        <access lane="886328981_0" pos="0.00" length="4.79" friendlyPos="1"/>
        <access lane="886328982#1_0" pos="0.00" length="0.74" friendlyPos="1"/>
        <access lane="886328988_0" pos="0.00" length="1.37" friendlyPos="1"/>
    </busStop>
    <busStop id="-5476063807" name="Ospitalea/Hospital" lane="-1026672473_0" startPos="1.00" endPos="26.00" friendlyPos="true">
        <access lane="-66902829#1_0" pos="21.99" length="14.75" friendlyPos="1"/>
        <access lane="1018546544#0_0" pos="0.78" length="37.14" friendlyPos="1"/>
        <access lane="1018546544#1_0" pos="0.00" length="37.21" friendlyPos="1"/>
        <access lane="66902829#1_0" pos="22.99" length="9.95" friendlyPos="1"/>
        <access lane="769620782#4_0" pos="22.10" length="11.84" friendlyPos="1"/>
    </busStop>
    <busStop id="-5476063808" name="Ospitalea/Hospital" lane="-1026672471#0_0" startPos="9.13" endPos="34.13" friendlyPos="true">
        <access lane="-66902829#1_0" pos="22.28" length="18.84" friendlyPos="1"/>
        <access lane="1018546543#3_0" pos="0.00" length="37.03" friendlyPos="1"/>
        <access lane="1018546544#1_0" pos="0.20" length="37.57" friendlyPos="1"/>
        <access lane="66902829#1_0" pos="22.70" length="14.04" friendlyPos="1"/>
        <access lane="769620782#4_0" pos="22.34" length="7.75" friendlyPos="1"/>
    </busStop>
    <busStop id="-5476063814" name="Basurto" lane="-1026649196#2_0" startPos="1.76" endPos="26.76" friendlyPos="true">
        <access lane="148008508#1_0" pos="34.28" length="10.06" friendlyPos="1"/>
        <access lane="569401810#2_0" pos="23.92" length="8.58" friendlyPos="1"/>
        <access lane="569401810#3_0" pos="1.13" length="5.91" friendlyPos="1"/>
        <access lane="809516286#4_0" pos="32.56" length="2.25" friendlyPos="1"/>
        <access lane="809516286#5_0" pos="0.00" length="2.25" friendlyPos="1"/>
    </busStop>
    <busStop id="-5476076764" name="Euskalduna" lane="-1026672495#0_0" startPos="5.95" endPos="30.95" friendlyPos="true">
        <access lane="41902259#2_0" pos="18.34" length="16.74" friendlyPos="1"/>
        <access lane="637085329#1_0" pos="147.19" length="12.01" friendlyPos="1"/>
        <access lane="644961379#4_0" pos="15.00" length="32.31" friendlyPos="1"/>
        <access lane="904392213#1_0" pos="1.90" length="31.84" friendlyPos="1"/>
        <access lane="904392213#3_0" pos="0.00" length="32.73" friendlyPos="1"/>
    </busStop>
    <busStop id="-5478168779" name="Uribitarte" lane="-445937112#2_0" startPos="5.39" endPos="30.39" friendlyPos="true">
        <access lane="1179982172#1_0" pos="17.25" length="25.52" friendlyPos="1"/>
        <access lane="174297155_0" pos="66.81" length="29.32" friendlyPos="1"/>
        <access lane="28463164#8_0" pos="18.61" length="17.44" friendlyPos="1"/>
        <access lane="432389959#5_0" pos="17.67" length="5.95" friendlyPos="1"/>
        <access lane="8481762#5_0" pos="17.73" length="18.51" friendlyPos="1"/>
    </busStop>
    <busStop id="-582031670" name="Uribitarte" lane="-445937962#1_0" startPos="81.59" endPos="106.59" friendlyPos="true">
        <access lane="1018375902#0_0" pos="0.00" length="32.21" friendlyPos="1"/>
        <access lane="1179982172#1_0" pos="16.97" length="20.25" friendlyPos="1"/>
        <access lane="28463164#8_0" pos="18.28" length="12.17" friendlyPos="1"/>
        <access lane="432389959#5_0" pos="18.01" length="11.22" friendlyPos="1"/>
        <access lane="8481762#5_0" pos="18.30" length="23.74" friendlyPos="1"/>
    </busStop>
    <busStop id="-582037358" name="Abandoibarra" lane="-445938970#3_0" startPos="133.59" endPos="158.59" friendlyPos="true">
        <access lane="1208781882#1_0" pos="22.70" length="24.85" friendlyPos="1"/>
        <access lane="1208781882#2_0" pos="0.00" length="20.25" friendlyPos="1"/>
        <access lane="1208782016#1_0" pos="12.50" length="15.27" friendlyPos="1"/>
        <access lane="171882519_0" pos="0.00" length="22.41" friendlyPos="1"/>
        <access lane="948481858_0" pos="13.10" length="19.17" friendlyPos="1"/>
    </busStop>
    <busStop id="-582037359" name="Guggenheim" lane="-445938970#0_0" startPos="6.25" endPos="31.25" friendlyPos="true">
        <access lane="174088368#0_0" pos="0.15" length="33.79" friendlyPos="1"/>
        <access lane="174088368#2_0" pos="0.00" length="32.23" friendlyPos="1"/>
        <access lane="41902261#1_0" pos="143.18" length="15.26" friendlyPos="1"/>
        <access lane="637085328#0_0" pos="16.44" length="37.01" friendlyPos="1"/>
        <access lane="637085328#1_0" pos="18.67" length="9.87" friendlyPos="1"/>
    </busStop>
    <busStop id="-582138782" name="San Mamés" lane="-1026672484#3_0" startPos="0.58" endPos="25.58" friendlyPos="true">
        <access lane="573653262#1_0" pos="22.04" length="9.57" friendlyPos="1"/>
        <access lane="886328980_0" pos="0.00" length="10.22" friendlyPos="1"/>
        <access lane="886328981_0" pos="0.00" length="9.13" friendlyPos="1"/>
        <access lane="886328982#1_0" pos="0.20" length="4.94" friendlyPos="1"/>
        <access lane="886328988_0" pos="0.00" length="5.11" friendlyPos="1"/>
    </busStop>
    <busStop id="-582138784" name="Euskalduna" lane="-1026672496#0_0" startPos="6.15" endPos="31.15" friendlyPos="true">
        <access lane="41902259#2_0" pos="18.55" length="12.18" friendlyPos="1"/>
        <access lane="637085329#1_0" pos="147.00" length="16.57" friendlyPos="1"/>
        <access lane="644961379#4_0" pos="15.32" length="27.76" friendlyPos="1"/>
        <access lane="904392213#1_0" pos="1.90" length="33.08" friendlyPos="1"/>
        <access lane="904392213#3_0" pos="0.00" length="32.05" friendlyPos="1"/>
    </busStop>
    <busStop id="-582149252" name="Abando" lane="-555533279#2_0" startPos="7.47" endPos="32.47" friendlyPos="true">
        <access lane="-28225525#3_0" pos="22.37" length="4.36" friendlyPos="1"/>
        <access lane="22876187_0" pos="0.00" length="40.32" friendlyPos="1"/>
        <access lane="28225525#3_0" pos="22.20" length="9.16" friendlyPos="1"/>
        <access lane="496213856#2_0" pos="20.69" length="40.89" friendlyPos="1"/>
        <access lane="496213856#3_0" pos="0.20" length="37.34" friendlyPos="1"/>
    </busStop>
    <busStop id="-5885749749" name="Deustuko zubia / Zubiarte" lane="-340820167_0" startPos="103.69" endPos="118.69" friendlyPos="true" lines="13 18 01 10"/>
    <busStop id="-5931082336" name="Hurtado Amézaga 2 / Geltokia-Estación" lane="-627566671#1_0" startPos="5.42" endPos="20.42" friendlyPos="true" lines="30 85 58 75">
        <access lane="469939786#2_0" pos="8.39" length="21.00" friendlyPos="1"/>
        <access lane="496213856#0_0" pos="0.00" length="14.45" friendlyPos="1"/>
        <access lane="496284683_0" pos="0.00" length="37.27" friendlyPos="1"/>
        <access lane="627566671#0_0" pos="47.90" length="16.16" friendlyPos="1"/>
        <access lane="627566671#1_0" pos="0.00" length="13.36" friendlyPos="1"/>
    </busStop>
    <busStop id="-5932419499" name="Campo Volantín 21" lane="-174299182#1_0" startPos="29.74" endPos="44.74" friendlyPos="true" lines="G8 71"/>
    <busStop id="-5938621848" name="Gordóniz 39" lane="-241719194#1_0" startPos="73.01" endPos="88.01" friendlyPos="true" lines="27 77 G3 72"/>
    <busStop id="-7014997834" name="Bilbao Intermodal 1" lane="-750217298_0" startPos="0.00" endPos="0.20" friendlyPos="true" lines="A3927 A3923 A3926 A3342 A3343 A3341 A3915 A3916 A3247 A0651 A17 A3512 A3933 31"/>
    <busStop id="1120060542" name="Deustu" lane="262052936#5_0" startPos="1376.45" endPos="1576.45" friendlyPos="true" lines="L2 L1">
        <access lane="132665161#4_0" pos="255.86" length="47.74" friendlyPos="1"/>
    </busStop>
    <busStop id="120060372" name="Campo Volantín / La Salve" lane="897216005_0" startPos="90.54" endPos="105.54" friendlyPos="true"/>
    <busStop id="1377479823" name="Basurto" lane="569401810#2_0" startPos="0.00" endPos="23.92" friendlyPos="true" lines="T1"/>
    <busStop id="1576577787" name="San Mamés" lane="558053674#1_0" startPos="0.00" endPos="200.00" friendlyPos="true" lines="C-2 C-1">
        <access lane="1163978728#0_0" pos="55.75" length="13.52" friendlyPos="1"/>
        <access lane="221395587#1_0" pos="54.90" length="3.54" friendlyPos="1"/>
        <access lane="573653242#0_0" pos="41.17" length="11.57" friendlyPos="1"/>
        <access lane="573653262#2_0" pos="14.36" length="32.00" friendlyPos="1"/>
        <access lane="886328972#2_0" pos="4.14" length="31.87" friendlyPos="1"/>
    </busStop>
    <busStop id="1611159740" name="Autonomía 1" lane="628258768_0" startPos="19.46" endPos="34.46" friendlyPos="true"/>
    <busStop id="1848293666" name="Autonomía" lane="558053674#1_0" startPos="513.13" endPos="713.13" friendlyPos="true" lines="C-2 C-1">
        <access lane="-128276598#1_0" pos="102.12" length="20.04" friendlyPos="1"/>
        <access lane="-25319465#1_0" pos="0.00" length="34.62" friendlyPos="1"/>
        <access lane="128276598#0_0" pos="7.76" length="15.24" friendlyPos="1"/>
        <access lane="148008511#0_0" pos="0.00" length="33.18" friendlyPos="1"/>
        <access lane="25319465#1_0" pos="0.20" length="32.05" friendlyPos="1"/>
    </busStop>
    <busStop id="2331111956" name="Tiboli 12" lane="28489660#3_0" startPos="10.32" endPos="25.32" friendlyPos="true"/>
    <busStop id="246852179" name="Moyua Plaza (Deutsche Bank)" lane="901097952#0_0" startPos="0.00" endPos="9.81" friendlyPos="true" lines="A3224"/>
    <busStop id="246852183" name="Moyúa 4" lane="902623938#0_0" startPos="0.00" endPos="14.97" friendlyPos="true" lines="A3"/>
    <busStop id="247081670" name="Urquijo 14 / Instituto" lane="1208848873#2_0" startPos="8.92" endPos="23.92" friendlyPos="true"/>
    <busStop id="3015894287" name="San Jose plaza (Elcano 5)" lane="411824370#0_0" startPos="0.00" endPos="15.00" friendlyPos="true" lines="A2153"/>
    <busStop id="312995725" name="Anselma de Salces 2" lane="28489657#1_0" startPos="149.86" endPos="164.86" friendlyPos="true"/>
    <busStop id="312996868" name="Matiko 1" lane="28489842_0" startPos="234.32" endPos="249.32" friendlyPos="true"/>
    <busStop id="3138104609" name="Plaza Biribila / Gran Vía" lane="623205935_0" startPos="3.77" endPos="18.77" friendlyPos="true" lines="G1 G5 03 A2 A9"/>
    <busStop id="3271221734" name="Abando" lane="262052936#0_0" startPos="200.30" endPos="400.30" friendlyPos="true" lines="L2 L1">
        <access lane="448877338#1_0" pos="0.00" length="14.89" friendlyPos="1"/>
        <access lane="596954359_0" pos="17.35" length="15.19" friendlyPos="1"/>
        <access lane="596954362_0" pos="0.00" length="12.40" friendlyPos="1"/>
        <access lane="596954365_0" pos="0.00" length="12.41" friendlyPos="1"/>
        <access lane="623203026#0_0" pos="2.74" length="12.57" friendlyPos="1"/>
    </busStop>
    <busStop id="3271221736" name="Indautxu" lane="262052936#3_0" startPos="538.45" endPos="738.45" friendlyPos="true" lines="L2 L1">
        <access lane="448047545_0" pos="0.00" length="1.71" friendlyPos="1"/>
        <access lane="592141508#1_0" pos="46.38" length="4.86" friendlyPos="1"/>
        <access lane="628997828#3_0" pos="53.14" length="5.19" friendlyPos="1"/>
        <access lane="862809052#0_0" pos="0.20" length="4.43" friendlyPos="1"/>
        <access lane="862809052#1_0" pos="0.00" length="1.46" friendlyPos="1"/>
    </busStop>
    <busStop id="3290281999" name="Santimami/San Mamés" lane="262052936#5_0" startPos="249.36" endPos="449.36" friendlyPos="true" lines="L2 L1">
        <access lane="448878907_0" pos="4.09" length="15.04" friendlyPos="1"/>
        <access lane="448878911_0" pos="4.14" length="11.56" friendlyPos="1"/>
        <access lane="604266566_0" pos="44.26" length="0.80" friendlyPos="1"/>
        <access lane="862345273#1_0" pos="0.00" length="17.13" friendlyPos="1"/>
        <access lane="862345275#1_0" pos="0.20" length="15.75" friendlyPos="1"/>
    </busStop>
    <busStop id="3657888856" name="Campo Volantín 23" lane="174299182#2_0" startPos="0.00" endPos="15.00" friendlyPos="true" lines="11"/>
    <busStop id="4205016613" name="Olabeaga / Dikea" lane="975724504_0" startPos="12.44" endPos="27.44" friendlyPos="true" lines="A3"/>
    <busStop id="4308934530" name="San Ignazio" lane="262052936#5_0" startPos="3093.04" endPos="3293.04" friendlyPos="true" lines="L2 L1"/>
    <busStop id="4411849558" name="Moyua" lane="262052936#2_0" startPos="202.07" endPos="402.07" friendlyPos="true" lines="L2 L1">
        <access lane="-1208711554_0" pos="101.23" length="8.26" friendlyPos="1"/>
        <access lane="-41578898#5_0" pos="0.00" length="8.86" friendlyPos="1"/>
        <access lane="1208711554_0" pos="0.00" length="10.04" friendlyPos="1"/>
        <access lane="41578898#5_0" pos="52.68" length="10.54" friendlyPos="1"/>
        <access lane="418997501#2_0" pos="0.00" length="7.49" friendlyPos="1"/>
    </busStop>
    <busStop id="4432818969" name="Arriaga" lane="445935027#1_0" startPos="15.67" endPos="40.67" friendlyPos="true" lines="T1">
        <access lane="-97894990#3_0" pos="10.27" length="16.07" friendlyPos="1"/>
        <access lane="1182252236#1_0" pos="0.20" length="21.12" friendlyPos="1"/>
        <access lane="1182252237#0_0" pos="0.20" length="20.83" friendlyPos="1"/>
        <access lane="1182252237#1_0" pos="0.00" length="21.20" friendlyPos="1"/>
        <access lane="97894990#3_0" pos="23.21" length="20.87" friendlyPos="1"/>
    </busStop>
    <busStop id="4432846368" name="Guggenheim" lane="445947753#0_0" startPos="114.17" endPos="139.17" friendlyPos="true" lines="T1">
        <access lane="174088368#0_0" pos="0.15" length="34.94" friendlyPos="1"/>
        <access lane="174088368#2_0" pos="0.00" length="35.57" friendlyPos="1"/>
        <access lane="41902261#1_0" pos="141.71" length="10.01" friendlyPos="1"/>
        <access lane="637085328#0_0" pos="16.44" length="40.87" friendlyPos="1"/>
        <access lane="637085328#1_0" pos="20.15" length="15.11" friendlyPos="1"/>
    </busStop>
    <busStop id="4432854208" name="Abandoibarra" lane="445947753#3_0" startPos="268.32" endPos="293.32" friendlyPos="true" lines="T1">
        <access lane="1208781882#1_0" pos="22.70" length="25.97" friendlyPos="1"/>
        <access lane="1208781882#2_0" pos="0.00" length="24.79" friendlyPos="1"/>
        <access lane="1208782016#1_0" pos="13.87" length="10.05" friendlyPos="1"/>
        <access lane="1208782274#8_0" pos="46.92" length="23.96" friendlyPos="1"/>
        <access lane="948481858_0" pos="14.47" length="13.94" friendlyPos="1"/>
    </busStop>
    <busStop id="4432868864" name="Sabino Arana" lane="1026672489#2_0" startPos="0.00" endPos="25.00" friendlyPos="true">
        <access lane="1262290394#1_0" pos="68.69" length="12.07" friendlyPos="1"/>
        <access lane="499104846#0_0" pos="48.01" length="26.57" friendlyPos="1"/>
        <access lane="499104846#1_0" pos="10.77" length="11.98" friendlyPos="1"/>
        <access lane="569403520#1_0" pos="0.20" length="20.08" friendlyPos="1"/>
        <access lane="569403520#2_0" pos="0.00" length="20.36" friendlyPos="1"/>
    </busStop>
    <busStop id="4432868865" name="Sabino Arana" lane="1026672488#2_0" startPos="0.00" endPos="25.00" friendlyPos="true" lines="T1">
        <access lane="1262290394#1_0" pos="68.69" length="8.47" friendlyPos="1"/>
        <access lane="499104846#0_0" pos="48.01" length="29.28" friendlyPos="1"/>
        <access lane="499104846#1_0" pos="11.09" length="16.04" friendlyPos="1"/>
        <access lane="569403520#1_0" pos="0.00" length="20.75" friendlyPos="1"/>
        <access lane="569403520#2_0" pos="0.00" length="22.29" friendlyPos="1"/>
    </busStop>
    <busStop id="4452040263" name="Deustu" lane="448200753#4_0" startPos="1381.47" endPos="1581.47" friendlyPos="true" lines="L2 L1">
        <access lane="132665161#4_0" pos="255.86" length="62.70" friendlyPos="1"/>
    </busStop>
    <busStop id="4458546393" name="San Mamés" lane="558053673#1_0" startPos="0.00" endPos="200.00" friendlyPos="true">
        <access lane="1018527817#0_0" pos="0.00" length="28.03" friendlyPos="1"/>
        <access lane="1163978728#0_0" pos="55.05" length="19.47" friendlyPos="1"/>
        <access lane="221395587#1_0" pos="54.16" length="9.49" friendlyPos="1"/>
        <access lane="573653242#0_0" pos="41.87" length="5.62" friendlyPos="1"/>
        <access lane="573653262#2_0" pos="13.54" length="26.08" friendlyPos="1"/>
    </busStop>
    <busStop id="4458957134" name="Autonomía" lane="432968956_0" startPos="257.62" endPos="457.62" friendlyPos="true">
        <access lane="-128276598#1_0" pos="99.52" length="8.45" friendlyPos="1"/>
        <access lane="128276598#0_0" pos="10.36" length="3.65" friendlyPos="1"/>
        <access lane="148008511#0_0" pos="0.00" length="27.15" friendlyPos="1"/>
        <access lane="148008511#1_0" pos="0.00" length="32.55" friendlyPos="1"/>
        <access lane="25319465#1_0" pos="0.20" length="32.33" friendlyPos="1"/>
    </busStop>
    <busStop id="4541033572" name="Ametzola" lane="432968956_0" startPos="800.88" endPos="1000.88" friendlyPos="true"/>
    <busStop id="4641951433" name="Abando Indalecio Prieto" lane="170703891_0" startPos="185.13" endPos="385.13" friendlyPos="true">
        <access lane="-313679780#4_0" pos="139.12" length="47.41" friendlyPos="1"/>
        <access lane="144717668#3_0" pos="40.49" length="59.71" friendlyPos="1"/>
        <access lane="313679780#4_0" pos="89.75" length="42.61" friendlyPos="1"/>
        <access lane="417890290#1_0" pos="40.60" length="45.49" friendlyPos="1"/>
        <access lane="469939786#0_0" pos="0.00" length="60.43" friendlyPos="1"/>
    </busStop>
    <busStop id="4641951435" name="Abando Indalecio Prieto" lane="469939534_0" startPos="0.00" endPos="200.00" friendlyPos="true" lines="Intercity - 00283">
        <access lane="-313679780#4_0" pos="139.02" length="41.44" friendlyPos="1"/>
        <access lane="144717668#3_0" pos="39.82" length="59.86" friendlyPos="1"/>
        <access lane="313679780#4_0" pos="89.85" length="36.64" friendlyPos="1"/>
        <access lane="417890290#1_0" pos="40.60" length="41.50" friendlyPos="1"/>
        <access lane="469939786#0_0" pos="0.00" length="61.65" friendlyPos="1"/>
    </busStop>
    <busStop id="4641951437" name="Bilbao Abando" lane="170703863#2_0" startPos="220.23" endPos="420.23" friendlyPos="true">
        <access lane="417890290#18_0" pos="95.40" length="19.14" friendlyPos="1"/>
        <access lane="417890290#1_0" pos="0.00" length="17.56" friendlyPos="1"/>
        <access lane="469939786#0_0" pos="9.16" length="3.15" friendlyPos="1"/>
        <access lane="469939786#1_0" pos="0.00" length="8.78" friendlyPos="1"/>
        <access lane="496284682_0" pos="0.00" length="9.03" friendlyPos="1"/>
    </busStop>
    <busStop id="4641951439" name="Abando Indalecio Prieto" lane="469939536_0" startPos="0.00" endPos="200.00" friendlyPos="true">
        <access lane="417890290#18_0" pos="95.40" length="13.86" friendlyPos="1"/>
        <access lane="417890290#1_0" pos="0.00" length="11.63" friendlyPos="1"/>
        <access lane="469939786#0_0" pos="5.17" length="3.08" friendlyPos="1"/>
        <access lane="469939786#1_0" pos="0.00" length="14.50" friendlyPos="1"/>
        <access lane="496284682_0" pos="0.00" length="13.04" friendlyPos="1"/>
    </busStop>
    <busStop id="4641951440" name="Bilbao Abando" lane="469939538_0" startPos="0.00" endPos="181.68" friendlyPos="true" lines="C-3">
        <access lane="469939786#0_0" pos="9.62" length="13.91" friendlyPos="1"/>
        <access lane="469939786#1_0" pos="4.01" length="3.30" friendlyPos="1"/>
        <access lane="469939786#2_0" pos="0.00" length="25.16" friendlyPos="1"/>
        <access lane="496284682_0" pos="0.00" length="12.57" friendlyPos="1"/>
        <access lane="496284683_0" pos="0.00" length="22.63" friendlyPos="1"/>
    </busStop>
    <busStop id="4641951442" name="Bilbao Abando" lane="469939539_0" startPos="0.00" endPos="181.65" friendlyPos="true">
        <access lane="469939786#0_0" pos="9.62" length="20.93" friendlyPos="1"/>
        <access lane="469939786#1_0" pos="8.77" length="3.38" friendlyPos="1"/>
        <access lane="469939786#2_0" pos="0.00" length="18.13" friendlyPos="1"/>
        <access lane="496284682_0" pos="0.00" length="18.68" friendlyPos="1"/>
        <access lane="496284683_0" pos="0.00" length="16.19" friendlyPos="1"/>
    </busStop>
    <busStop id="4641951444" name="Bilbao Abando" lane="469939541_0" startPos="0.00" endPos="181.59" friendlyPos="true" lines="C-2">
        <access lane="469939786#1_0" pos="15.64" length="4.57" friendlyPos="1"/>
        <access lane="469939786#2_0" pos="0.00" length="5.79" friendlyPos="1"/>
        <access lane="496213856#0_0" pos="0.00" length="27.54" friendlyPos="1"/>
        <access lane="496284683_0" pos="0.00" length="8.22" friendlyPos="1"/>
        <access lane="627566671#0_0" pos="47.90" length="26.47" friendlyPos="1"/>
    </busStop>
    <busStop id="4641951446" name="Bilbao Abando" lane="469939540_0" startPos="0.00" endPos="181.57" friendlyPos="true">
        <access lane="469939786#1_0" pos="15.64" length="10.70" friendlyPos="1"/>
        <access lane="469939786#2_0" pos="1.71" length="3.61" friendlyPos="1"/>
        <access lane="496213856#0_0" pos="0.00" length="21.35" friendlyPos="1"/>